version 2
run General-0-20200218-08:52:43-19282
attr configname General
attr datetime 20200218-08:52:43
attr experiment General
attr inifile omnetpp.ini
attr iterationvars ""
attr iterationvarsf ""
attr measurement ""
attr network RSUExampleScenario
attr processid 19282
attr repetition 0
attr replication #0
attr resultdir results
attr runnumber 0
attr seedset 0
param *.playgroundSizeX 2500m
param *.playgroundSizeY 2500m
param *.playgroundSizeZ 50m
param *.annotations.draw true
param *.obstacles.obstacles "xmldoc(\"config.xml\", \"//AnalogueModel[@type='SimpleObstacleShadowing']/obstacles\")"
param *.manager.updateInterval 1s
param *.manager.host "\"localhost\""
param *.manager.port 9999
param *.manager.autoShutdown true
param *.manager.launchConfig "xmldoc(\"erlangen.launchd.xml\")"
param *.rsu[0].mobility.x 2000
param *.rsu[0].mobility.y 2000
param *.rsu[0].mobility.z 3
param *.rsu[*].applType "\"TraCIDemoRSU11p\""
param *.rsu[*].appl.headerLength "80 bit"
param *.rsu[*].appl.sendBeacons false
param *.rsu[*].appl.dataOnSch false
param *.rsu[*].appl.beaconInterval 1s
param *.rsu[*].appl.beaconUserPriority 7
param *.rsu[*].appl.dataUserPriority 5
param *.rsu[*].nic.phy80211p.antennaOffsetZ "0 m"
param *.connectionManager.sendDirect true
param *.connectionManager.maxInterfDist 2600m
param *.connectionManager.drawMaxIntfDist false
param *.**.nic.mac1609_4.useServiceChannel false
param *.**.nic.mac1609_4.txPower 20mW
param *.**.nic.mac1609_4.bitrate 6Mbps
param *.**.nic.phy80211p.minPowerLevel -110dBm
param *.**.nic.phy80211p.useNoiseFloor true
param *.**.nic.phy80211p.noiseFloor -98dBm
param *.**.nic.phy80211p.decider "xmldoc(\"config.xml\")"
param *.**.nic.phy80211p.analogueModels "xmldoc(\"config.xml\")"
param *.**.nic.phy80211p.usePropagationDelay true
param *.**.nic.phy80211p.antenna "xmldoc(\"antenna.xml\", \"/root/Antenna[@id='monopole']\")"
param *.node[*].nic.phy80211p.antennaOffsetY "0 m"
param *.node[*].nic.phy80211p.antennaOffsetZ "1.895 m"
param *.node[*].applType "\"TraCIDemo11p\""
param *.node[*].appl.headerLength "80 bit"
param *.node[*].appl.sendBeacons false
param *.node[*].appl.dataOnSch false
param *.node[*].appl.beaconInterval 1s
param *.node[*].veinsmobility.x 0
param *.node[*].veinsmobility.y 0
param *.node[*].veinsmobility.z 0
param *.node[*].veinsmobility.setHostSpeed false
param *.node[*0].veinsmobility.accidentCount 5
param *.node[*0].veinsmobility.accidentStart 73s
param *.node[*0].veinsmobility.accidentDuration 20s

vector 0 RSUExampleScenario.node[0].veinsmobility posx ETV
vector 1 RSUExampleScenario.node[0].veinsmobility posy ETV
vector 2 RSUExampleScenario.node[0].veinsmobility speed ETV
vector 3 RSUExampleScenario.node[0].veinsmobility acceleration ETV
vector 4 RSUExampleScenario.node[0].veinsmobility co2emission ETV
vector 5 RSUExampleScenario.node[1].veinsmobility posx ETV
vector 6 RSUExampleScenario.node[1].veinsmobility posy ETV
vector 7 RSUExampleScenario.node[1].veinsmobility speed ETV
vector 8 RSUExampleScenario.node[1].veinsmobility acceleration ETV
vector 9 RSUExampleScenario.node[1].veinsmobility co2emission ETV
vector 10 RSUExampleScenario.node[2].veinsmobility posx ETV
vector 11 RSUExampleScenario.node[2].veinsmobility posy ETV
vector 12 RSUExampleScenario.node[2].veinsmobility speed ETV
vector 13 RSUExampleScenario.node[2].veinsmobility acceleration ETV
vector 14 RSUExampleScenario.node[2].veinsmobility co2emission ETV
vector 15 RSUExampleScenario.node[3].veinsmobility posx ETV
vector 16 RSUExampleScenario.node[3].veinsmobility posy ETV
vector 17 RSUExampleScenario.node[3].veinsmobility speed ETV
vector 18 RSUExampleScenario.node[3].veinsmobility acceleration ETV
vector 19 RSUExampleScenario.node[3].veinsmobility co2emission ETV
vector 20 RSUExampleScenario.node[4].veinsmobility posx ETV
vector 21 RSUExampleScenario.node[4].veinsmobility posy ETV
vector 22 RSUExampleScenario.node[4].veinsmobility speed ETV
vector 23 RSUExampleScenario.node[4].veinsmobility acceleration ETV
vector 24 RSUExampleScenario.node[4].veinsmobility co2emission ETV
vector 25 RSUExampleScenario.node[5].veinsmobility posx ETV
vector 26 RSUExampleScenario.node[5].veinsmobility posy ETV
vector 27 RSUExampleScenario.node[5].veinsmobility speed ETV
vector 28 RSUExampleScenario.node[5].veinsmobility acceleration ETV
vector 29 RSUExampleScenario.node[5].veinsmobility co2emission ETV
vector 30 RSUExampleScenario.node[6].veinsmobility posx ETV
vector 31 RSUExampleScenario.node[6].veinsmobility posy ETV
vector 32 RSUExampleScenario.node[6].veinsmobility speed ETV
vector 33 RSUExampleScenario.node[6].veinsmobility acceleration ETV
vector 34 RSUExampleScenario.node[6].veinsmobility co2emission ETV
vector 35 RSUExampleScenario.node[7].veinsmobility posx ETV
vector 36 RSUExampleScenario.node[7].veinsmobility posy ETV
vector 37 RSUExampleScenario.node[7].veinsmobility speed ETV
vector 38 RSUExampleScenario.node[7].veinsmobility acceleration ETV
vector 39 RSUExampleScenario.node[7].veinsmobility co2emission ETV
vector 40 RSUExampleScenario.node[8].veinsmobility posx ETV
vector 41 RSUExampleScenario.node[8].veinsmobility posy ETV
vector 42 RSUExampleScenario.node[8].veinsmobility speed ETV
vector 43 RSUExampleScenario.node[8].veinsmobility acceleration ETV
vector 44 RSUExampleScenario.node[8].veinsmobility co2emission ETV
vector 45 RSUExampleScenario.node[9].veinsmobility posx ETV
vector 46 RSUExampleScenario.node[9].veinsmobility posy ETV
vector 47 RSUExampleScenario.node[9].veinsmobility speed ETV
vector 48 RSUExampleScenario.node[9].veinsmobility acceleration ETV
vector 49 RSUExampleScenario.node[9].veinsmobility co2emission ETV
vector 50 RSUExampleScenario.node[10].veinsmobility posx ETV
vector 51 RSUExampleScenario.node[10].veinsmobility posy ETV
vector 52 RSUExampleScenario.node[10].veinsmobility speed ETV
vector 53 RSUExampleScenario.node[10].veinsmobility acceleration ETV
vector 54 RSUExampleScenario.node[10].veinsmobility co2emission ETV
vector 55 RSUExampleScenario.node[11].veinsmobility posx ETV
vector 56 RSUExampleScenario.node[11].veinsmobility posy ETV
vector 57 RSUExampleScenario.node[11].veinsmobility speed ETV
vector 58 RSUExampleScenario.node[11].veinsmobility acceleration ETV
vector 59 RSUExampleScenario.node[11].veinsmobility co2emission ETV
vector 60 RSUExampleScenario.node[12].veinsmobility posx ETV
vector 61 RSUExampleScenario.node[12].veinsmobility posy ETV
vector 62 RSUExampleScenario.node[12].veinsmobility speed ETV
vector 63 RSUExampleScenario.node[12].veinsmobility acceleration ETV
vector 64 RSUExampleScenario.node[12].veinsmobility co2emission ETV
vector 65 RSUExampleScenario.node[13].veinsmobility posx ETV
vector 66 RSUExampleScenario.node[13].veinsmobility posy ETV
vector 67 RSUExampleScenario.node[13].veinsmobility speed ETV
vector 68 RSUExampleScenario.node[13].veinsmobility acceleration ETV
vector 69 RSUExampleScenario.node[13].veinsmobility co2emission ETV
vector 70 RSUExampleScenario.node[14].veinsmobility posx ETV
vector 71 RSUExampleScenario.node[14].veinsmobility posy ETV
vector 72 RSUExampleScenario.node[14].veinsmobility speed ETV
vector 73 RSUExampleScenario.node[14].veinsmobility acceleration ETV
vector 74 RSUExampleScenario.node[14].veinsmobility co2emission ETV
vector 75 RSUExampleScenario.node[15].veinsmobility posx ETV
vector 76 RSUExampleScenario.node[15].veinsmobility posy ETV
vector 77 RSUExampleScenario.node[15].veinsmobility speed ETV
vector 78 RSUExampleScenario.node[15].veinsmobility acceleration ETV
vector 79 RSUExampleScenario.node[15].veinsmobility co2emission ETV
vector 80 RSUExampleScenario.node[16].veinsmobility posx ETV
vector 81 RSUExampleScenario.node[16].veinsmobility posy ETV
vector 82 RSUExampleScenario.node[16].veinsmobility speed ETV
vector 83 RSUExampleScenario.node[16].veinsmobility acceleration ETV
vector 84 RSUExampleScenario.node[16].veinsmobility co2emission ETV
vector 85 RSUExampleScenario.node[17].veinsmobility posx ETV
vector 86 RSUExampleScenario.node[17].veinsmobility posy ETV
vector 87 RSUExampleScenario.node[17].veinsmobility speed ETV
vector 88 RSUExampleScenario.node[17].veinsmobility acceleration ETV
vector 89 RSUExampleScenario.node[17].veinsmobility co2emission ETV
vector 90 RSUExampleScenario.node[18].veinsmobility posx ETV
vector 91 RSUExampleScenario.node[18].veinsmobility posy ETV
vector 92 RSUExampleScenario.node[18].veinsmobility speed ETV
vector 93 RSUExampleScenario.node[18].veinsmobility acceleration ETV
vector 94 RSUExampleScenario.node[18].veinsmobility co2emission ETV
vector 95 RSUExampleScenario.node[19].veinsmobility posx ETV
vector 96 RSUExampleScenario.node[19].veinsmobility posy ETV
vector 97 RSUExampleScenario.node[19].veinsmobility speed ETV
vector 98 RSUExampleScenario.node[19].veinsmobility acceleration ETV
vector 99 RSUExampleScenario.node[19].veinsmobility co2emission ETV
vector 100 RSUExampleScenario.node[20].veinsmobility posx ETV
vector 101 RSUExampleScenario.node[20].veinsmobility posy ETV
vector 102 RSUExampleScenario.node[20].veinsmobility speed ETV
vector 103 RSUExampleScenario.node[20].veinsmobility acceleration ETV
vector 104 RSUExampleScenario.node[20].veinsmobility co2emission ETV
vector 105 RSUExampleScenario.node[21].veinsmobility posx ETV
vector 106 RSUExampleScenario.node[21].veinsmobility posy ETV
vector 107 RSUExampleScenario.node[21].veinsmobility speed ETV
vector 108 RSUExampleScenario.node[21].veinsmobility acceleration ETV
vector 109 RSUExampleScenario.node[21].veinsmobility co2emission ETV
vector 110 RSUExampleScenario.node[22].veinsmobility posx ETV
vector 111 RSUExampleScenario.node[22].veinsmobility posy ETV
vector 112 RSUExampleScenario.node[22].veinsmobility speed ETV
vector 113 RSUExampleScenario.node[22].veinsmobility acceleration ETV
vector 114 RSUExampleScenario.node[22].veinsmobility co2emission ETV
vector 115 RSUExampleScenario.node[23].veinsmobility posx ETV
vector 116 RSUExampleScenario.node[23].veinsmobility posy ETV
vector 117 RSUExampleScenario.node[23].veinsmobility speed ETV
vector 118 RSUExampleScenario.node[23].veinsmobility acceleration ETV
vector 119 RSUExampleScenario.node[23].veinsmobility co2emission ETV
vector 120 RSUExampleScenario.node[24].veinsmobility posx ETV
vector 121 RSUExampleScenario.node[24].veinsmobility posy ETV
vector 122 RSUExampleScenario.node[24].veinsmobility speed ETV
vector 123 RSUExampleScenario.node[24].veinsmobility acceleration ETV
vector 124 RSUExampleScenario.node[24].veinsmobility co2emission ETV
vector 125 RSUExampleScenario.node[25].veinsmobility posx ETV
vector 126 RSUExampleScenario.node[25].veinsmobility posy ETV
vector 127 RSUExampleScenario.node[25].veinsmobility speed ETV
vector 128 RSUExampleScenario.node[25].veinsmobility acceleration ETV
vector 129 RSUExampleScenario.node[25].veinsmobility co2emission ETV
vector 130 RSUExampleScenario.node[26].veinsmobility posx ETV
vector 131 RSUExampleScenario.node[26].veinsmobility posy ETV
0	2	1	2414.8476884116
0	3	2	2414.8476884116
0	4	3	2411.8243290941
0	5	4	2407.1592244543
0	6	5	2402.288200066
0	7	6	2396.1394374635
0	8	7	2388.6993875942
0	9	8	2379.889221533
0	10	9	2370.1207192459
0	11	10	2360.3141803208
0	12	11	2350.5099475634
0	13	12	2341.0010868867
0	14	13	2334.5620136983
0	15	14	2337.6803779466
0	16	15	2348.3497968862
0	17	16	2358.6961674725
0	18	17	2371.6616533546
0	19	18	2385.4706804305
0	20	19	2399.3588350668
0	21	20	2412.4541998667
0	22	21	2421.4418196582
0	23	22	2428.417609864
0	24	23	2431.468930052
0	25	24	2433.1513403206
0	26	25	2435.1237040944
0	27	26	2437.2173147583
0	28	27	2438.6437980286
0	29	28	2439.5074353185
0	30	29	2440.517813261
0	31	30	2441.5286354903
0	32	31	2442.5392864447
0	33	32	2443.5505626462
0	34	33	2444.5611125134
0	35	34	2445.5724211388
0	36	35	2446.5834693939
0	37	36	2447.5934051003
0	38	37	2448.6036931522
0	39	38	2449.6148620235
0	40	39	2450.6248001783
0	41	40	2449.5880553933
0	42	41	2448.4757357414
0	43	42	2447.3635385588
0	44	43	2446.250303259
0	45	44	2445.1365203297
0	46	45	2444.0235521834
0	47	46	2442.9111769209
0	48	47	2441.7982721732
0	49	48	2440.6856421625
0	50	49	2439.7151308154
0	51	50	2438.7725309408
0	52	51	2437.9056889905
0	53	52	2432.8785054281
0	54	53	2422.5273191113
0	55	54	2409.439604845
0	56	55	2395.517893619
0	57	56	2381.592286239
0	58	57	2367.6659531716
0	59	58	2353.7601239877
0	60	59	2339.8337569573
0	61	60	2325.9069679289
0	62	61	2311.9542202253
0	63	62	2298.0325140053
0	64	63	2284.0857072632
0	65	64	2270.1754193477
0	66	65	2256.2378749268
0	67	66	2242.3725172955
0	68	67	2228.5568932705
0	69	68	2214.8035730832
0	70	69	2201.6130456962
0	71	70	2188.4247624045
0	72	71	2175.5107078577
0	73	72	2163.5018647154
0	74	73	2152.2359160049
0	76	74	2144.5614629743
0	77	75	2140.764952604
0	78	76	2140.3209259163
0	79	77	2140.3209259163
0	80	78	2140.3209259163
0	81	79	2140.3209259163
1	2	1	1578.4613427464
1	3	2	1578.4613427464
1	4	3	1579.5715045081
1	5	4	1581.5561876604
1	6	5	1586.4898643075
1	7	6	1592.7177137369
1	8	7	1600.2534592729
1	9	8	1609.1769437566
1	10	9	1619.0710908128
1	11	10	1629.0037637418
1	12	11	1638.9341008412
1	13	12	1649.1129276818
1	14	13	1661.0453354148
1	15	14	1673.5713017788
1	16	15	1682.4825292248
1	17	16	1691.8131453674
1	18	17	1695.5671389326
1	19	18	1697.3762977775
1	20	19	1698.7149431584
1	21	20	1699.9531973498
1	22	21	1700.8030368192
1	23	22	1701.4822415169
1	24	23	1709.488976148
1	25	24	1720.5600911779
1	26	25	1733.5392477075
1	27	26	1747.3162704222
1	28	27	1761.1584832035
1	29	28	1775.0702432813
1	30	29	1788.9649324082
1	31	30	1802.8657313576
1	32	31	1816.7641749373
1	33	32	1830.6712168986
1	34	33	1844.5682703312
1	35	34	1858.4757581847
1	36	35	1872.3796654344
1	37	36	1886.2682729438
1	38	37	1900.1617258992
1	39	38	1914.0672918586
1	40	39	1927.95593304
1	41	40	1941.8192613758
1	42	41	1955.7024557721
1	43	42	1969.5841215905
1	44	43	1983.4787444612
1	45	44	1997.3802024601
1	46	45	2011.2714909082
1	47	46	2025.1553793969
1	48	47	2039.0458765477
1	49	48	2052.9329446238
1	50	49	2066.8462265795
1	51	50	2080.7728807703
1	52	51	2094.6498483503
1	53	52	2107.3969092406
1	54	53	2116.410831539
1	55	54	2120.9360540062
1	56	55	2120.5048353085
1	57	56	2120.0344859883
1	58	57	2119.5641121576
1	59	58	2119.0944308629
1	60	59	2118.6240558857
1	61	60	2118.1536666537
1	62	61	2117.6824006466
1	63	62	2117.2121830918
1	64	63	2116.7411177447
1	65	64	2116.2712858524
1	66	65	2115.8005333487
1	67	66	2114.7955725584
1	68	67	2112.8364102887
1	69	68	2110.6440530941
1	70	69	2106.1704403665
1	71	70	2101.6975887315
1	72	71	2096.6391956527
1	73	72	2089.5697793076
1	74	73	2082.9376931852
1	76	74	2078.419863862
1	77	75	2076.1849181512
1	78	76	2075.9235266512
1	79	77	2075.9235266512
1	80	78	2075.9235266512
1	81	79	2075.9235266512
2	3	2	4.1061966058897
2	4	3	6.0195495591482
2	5	4	7.7148368984793
2	6	5	9.5879868385225
2	7	6	11.391389363371
2	8	7	13.513839789145
2	9	8	13.99235115225
2	10	9	13.890224446259
2	11	10	13.976677174468
2	12	11	13.994826577434
2	13	12	13.923680325528
2	14	13	13.923542996629
2	15	14	13.91007151508
2	16	15	13.964598868005
2	17	16	13.995233640105
2	18	17	13.952304350403
2	19	18	13.956911946491
2	20	19	11.503494614513
2	21	20	7.0034946145128
2	22	21	7.8970062485022
2	23	22	10.10483181514
2	24	23	11.990706169653
2	25	24	13.981089308816
2	26	25	13.965594365916
2	27	26	13.989059597438
2	28	27	13.956378436291
2	29	28	13.910982951869
2	30	29	13.88918493646
2	31	30	13.908189346099
2	32	31	13.983992603337
2	33	32	13.971500478752
2	34	33	13.873081948087
2	35	34	13.985133641064
2	36	35	13.886848415199
2	37	36	13.876205747321
2	38	37	13.967912819823
2	39	38	13.871047234884
2	40	39	13.89239756926
2	41	40	13.872267716837
2	42	41	13.999815066161
2	43	42	13.964707984752
2	44	43	13.906584702837
2	45	44	13.922364303169
2	46	45	13.929034490574
2	47	46	13.93922677479
2	48	47	13.924399639922
2	49	48	13.96850544848
2	50	49	13.986686690277
2	51	50	13.935194088209
2	52	51	13.930097484484
2	53	52	13.948393711536
2	54	53	13.882971800906
2	55	54	13.87138918183
2	56	55	13.933780807857
2	57	56	13.942265776542
2	58	57	13.95140511482
2	59	58	13.886548467774
2	60	59	13.920721456567
2	61	60	13.906796863726
2	62	61	13.917803910668
2	63	62	13.924582225601
2	64	63	13.959688465288
2	65	64	13.957318032989
2	66	65	13.940553226951
2	67	66	13.998651232829
2	68	67	13.999179182528
2	69	68	13.886099785112
2	70	69	13.881868150404
2	71	70	13.887636745651
2	72	71	13.978686858166
2	73	72	11.380505228889
2	74	73	6.8805052288885
2	76	74	2.3805052288885
2	77	75	0
2	78	76	0
2	79	77	0
2	80	78	0
2	81	79	0
3	4	3	1.9133529532584
3	5	4	1.6952873393311
3	6	5	1.8731499400432
3	7	6	1.8034025248489
3	8	7	2.1224504257739
3	9	8	0.47851136310433
3	10	9	-0.1021267059911
3	11	10	0.086452728209551
3	12	11	0.018149402965792
3	13	12	-0.071146251906175
3	14	13	-0.0001373288989992
3	15	14	-0.013471481548622
3	16	15	0.054527352924923
3	17	16	0.03063477210002
3	18	17	-0.04292928970186
3	19	18	0.0046075960877356
3	20	19	-2.4534173319781
3	21	20	-4.5
3	22	21	0.8935116339894
3	23	22	2.2078255666373
3	24	23	1.8858743545134
3	25	24	1.9903831391631
3	26	25	-0.01549494290026
3	27	26	0.023465231521987
3	28	27	-0.032681161146611
3	29	28	-0.045395484422334
3	30	29	-0.021798015409148
3	31	30	0.019004409639164
3	32	31	0.075803257238585
3	33	32	-0.012492124584968
3	34	33	-0.098418530665803
3	35	34	0.11205169297755
3	36	35	-0.098285225864965
3	37	36	-0.01064266787842
3	38	37	0.091707072502468
3	39	38	-0.096865584938786
3	40	39	0.021350334375166
3	41	40	-0.020129852422979
3	42	41	0.12754734932445
3	43	42	-0.035107081409079
3	44	43	-0.058123281914741
3	45	44	0.015779600332026
3	46	45	0.0066701874043797
3	47	46	0.010192284216172
3	48	47	-0.014827134867664
3	49	48	0.044105808557942
3	50	49	0.018181241797283
3	51	50	-0.051492602068466
3	52	51	-0.0050966037251055
3	53	52	0.018296227052343
3	54	53	-0.065421910630539
3	55	54	-0.011582619075197
3	56	55	0.062391626026946
3	57	56	0.0084849686850799
3	58	57	0.0091393382777465
3	59	58	-0.064856647045817
3	60	59	0.034172988792415
3	61	60	-0.013924592840485
3	62	61	0.011007046941668
3	63	62	0.0067783149331806
3	64	63	0.035106239686721
3	65	64	-0.0023704322986315
3	66	65	-0.016764806038699
3	67	66	0.058098005878273
3	68	67	0.0005279496987356
3	69	68	-0.11307939741528
3	70	69	-0.0042316347081215
3	71	70	0.0057685952470639
3	72	71	0.091050112515221
3	73	72	-2.598181629278
3	74	73	-4.5
3	76	74	-4.5
3	77	75	-2.3805052288885
3	78	76	0
3	79	77	0
3	80	78	0
3	81	79	0
4	4	3	4.1962556146115
4	5	4	4.6765885426193
4	6	5	5.9822455727343
4	7	6	6.7469998477461
4	8	7	8.9023657158011
4	9	8	3.651678681686
4	10	9	1.6857621818206
4	11	10	2.3276633668785
4	12	11	2.0995306276608
4	13	12	1.7923040941768
4	14	13	2.0305681317735
4	15	14	1.9844951865828
4	16	15	2.2187318873595
4	17	16	2.1416854339172
4	18	17	1.8896148890835
4	19	18	2.0499339673421
4	20	19	0.973
4	21	20	0.973
4	22	21	3.236958348016
4	23	22	7.0694109561587
4	24	23	7.2974163894139
4	25	24	8.7433911631671
4	26	25	1.9831721788576
4	27	26	2.116835898497
4	28	27	1.9244585801898
4	29	28	1.8775583559564
4	30	29	1.9545657515643
4	31	30	2.0931646705581
4	32	31	2.2926746988581
4	33	32	1.993865292131
4	34	33	1.6968396252803
4	35	34	2.4149847823944
4	36	35	1.6983583398882
4	37	36	1.9906198998388
4	38	37	2.3442713071536
4	39	38	1.7018725964397
4	40	39	2.0993392475273
4	41	40	1.9585122345881
4	42	41	2.4691677522194
4	43	42	1.9170802753567
4	44	43	1.8345014514108
4	45	44	2.0838538984303
4	46	45	2.0539801513469
4	47	46	2.0668686152862
4	48	47	1.9813596940184
4	49	48	2.1840996762636
4	50	49	2.0987681125428
4	51	50	1.8592856847688
4	52	51	2.0145873760113
4	53	52	2.0950692067684
4	54	53	1.8080099866508
4	55	54	1.9870007069688
4	56	55	2.2415869227426
4	57	56	2.0614496349521
4	58	57	2.0646020593826
4	59	58	1.8102089718445
4	60	59	2.1453880261281
4	61	60	1.9826536733129
4	62	61	2.0673636130683
4	63	62	2.0538817544551
4	64	63	2.1528270365066
4	65	64	2.0265038417738
4	66	65	1.9764402783138
4	67	66	2.2347131127692
4	68	67	2.0405446651404
4	69	68	1.6487905152147
4	70	69	2.0126291187762
4	71	70	2.0466796925005
4	72	71	2.3433989621326
4	73	72	0.973
4	74	73	0.973
4	76	74	0.973
4	77	75	0.973
4	78	76	0.973
4	79	77	0.973
4	80	78	0.973
4	81	79	0.973
5	5	4	2414.8767583254
5	6	5	2414.8767583254
5	7	6	2411.8725636174
5	8	7	2407.2970525089
5	9	8	2402.4626210862
5	10	9	2396.3056860371
5	11	10	2388.8743536096
5	12	11	2380.097228827
5	13	12	2370.3507264333
5	14	13	2360.5878487076
5	15	14	2350.7849318213
5	16	15	2341.2418729237
5	17	16	2334.6305580324
5	18	17	2337.3467480277
5	19	18	2348.0519014368
5	20	19	2358.3998493504
5	21	20	2371.2788021446
5	22	21	2385.0887639745
5	23	22	2398.4985461925
5	24	23	2411.2485283293
5	25	24	2420.6905829484
5	26	25	2427.6440450998
5	27	26	2431.3031180431
5	28	27	2432.9057471878
5	29	28	2434.8184996871
5	30	29	2436.9106889558
5	31	30	2438.5031214217
5	32	31	2439.359314087
5	33	32	2440.3695716034
5	34	33	2441.3815056744
5	35	34	2442.392207776
5	36	35	2443.4019859718
5	37	36	2444.4122552489
5	38	37	2445.4251439738
5	39	38	2446.4367595227
5	40	39	2447.4467230743
5	41	40	2448.4574488286
5	42	41	2449.467800329
5	43	42	2450.4780716181
5	44	43	2449.7461704329
5	45	44	2448.6331060936
5	46	45	2447.5209445587
5	47	46	2446.407523851
5	48	47	2445.2946584851
5	49	48	2444.1824360332
5	50	49	2443.0706190476
5	51	50	2441.9568028547
5	52	51	2440.8451110823
5	53	52	2439.8503503047
5	54	53	2438.9091742415
5	55	54	2438.2310626655
5	56	55	2433.9050446447
5	57	56	2424.21615465
5	58	57	2411.3460908785
5	59	58	2397.4706148925
5	60	59	2383.5587488873
5	61	60	2369.633660475
5	62	61	2355.7048479554
5	63	62	2341.7904321874
5	64	63	2327.8638711022
5	65	64	2313.9188814831
5	66	65	2299.9979078089
5	67	66	2286.0826278217
5	68	67	2272.1551827891
5	69	68	2258.2333055256
5	70	69	2244.3319301521
5	71	70	2230.5388995206
5	72	71	2216.7493601282
5	73	72	2203.5089906314
5	74	73	2190.3028214657
5	76	74	2177.2175397498
5	77	75	2166.0508945999
5	78	76	2157.6231104804
5	79	77	2151.7712981963
5	80	78	2148.1230201763
5	81	79	2146.1290875688
6	5	4	1578.4506684253
6	6	5	1578.4506684253
6	7	6	1579.5537930429
6	8	7	1581.4165868293
6	9	8	1586.3131998433
6	10	9	1592.5493268352
6	11	10	1600.0762428036
6	12	11	1608.9662610246
6	13	12	1618.8381252186
6	14	13	1628.7265753681
6	15	14	1638.6555796713
6	16	15	1648.8046840783
6	17	16	1660.6325348346
6	18	17	1673.301875555
6	19	18	1682.2138796467
6	20	19	1691.5459182626
6	21	20	1695.5099147679
6	22	21	1697.3308411958
6	23	22	1698.6335971011
6	24	23	1699.8391930545
6	25	24	1700.7320023719
6	26	25	1701.2941834759
6	27	26	1708.3978488175
6	28	27	1718.9439634858
6	29	28	1731.5308475178
6	30	29	1745.2985167308
6	31	30	1759.1189484736
6	32	31	1773.033284259
6	33	32	1786.9263172904
6	34	33	1800.8424062571
6	35	34	1814.7415532097
6	36	35	1828.6279946407
6	37	36	1842.5211894047
6	38	37	1856.4504067414
6	39	38	1870.362115399
6	40	39	1884.2511058366
6	41	40	1898.150578063
6	42	41	1912.0449035605
6	43	42	1925.9381259941
6	44	43	1939.8457802581
6	45	44	1953.7382693188
6	46	45	1967.6194902081
6	47	46	1981.5164272105
6	48	47	1995.4064328251
6	49	48	2009.2884140396
6	50	49	2023.165334505
6	51	50	2037.0672076773
6	52	51	2050.942565321
6	53	52	2064.8483957723
6	54	53	2078.754013543
6	55	54	2092.6537938379
6	56	55	2105.6893007364
6	57	56	2115.3934075218
6	58	57	2120.5034639826
6	59	58	2120.5707901428
6	60	59	2120.100904949
6	61	60	2119.6305731572
6	62	61	2119.160115581
6	63	62	2118.6901442679
6	64	63	2118.2197627351
6	65	64	2117.748758764
6	66	65	2117.2785659507
6	67	66	2116.8085654471
6	68	67	2116.3381540589
6	69	68	2115.8679307271
6	70	69	2115.0734324455
6	71	70	2113.117474094
6	72	71	2111.1620108271
6	73	72	2106.8134566117
6	74	73	2102.3345389208
6	76	74	2097.6439806372
6	77	75	2091.0703529529
6	78	76	2086.1090495121
6	79	77	2082.6641800171
6	80	78	2080.516496351
6	81	79	2079.3426997084
7	6	5	4.0332649588119
7	7	6	5.8265110515686
7	8	7	7.7852127750962
7	9	8	9.5658873894228
7	10	9	11.450149483434
7	11	10	13.391487500134
7	12	11	13.949883621705
7	13	12	13.87602620427
7	14	13	13.885232782268
7	15	14	13.987373048679
7	16	15	13.890608048609
7	17	16	13.887004709987
7	18	17	13.926980708602
7	19	18	13.89086526999
7	20	19	13.965056618985
7	21	20	13.946692067499
7	22	21	13.097137451398
7	23	22	11.939132677032
7	24	23	7.4783001788439
7	25	24	7.8592269216425
7	26	25	9.5749213322898
7	27	26	11.610942506126
7	28	27	13.581243869506
7	29	28	13.973211987913
7	30	29	13.918392209036
7	31	30	13.928662607018
7	32	31	13.985277111761
7	33	32	13.95532245066
7	34	33	13.938708755139
7	35	34	13.908545650935
7	36	35	13.927478809105
7	37	36	13.897819017794
7	38	37	13.989504252097
7	39	38	13.94374062394
7	40	39	13.903882643976
7	41	40	13.969130632835
7	42	41	13.884234787642
7	43	42	13.881978327318
7	44	43	13.927070145076
7	45	44	13.922745489741
7	46	45	13.95273740395
7	47	46	13.968270483359
7	48	47	13.918685564972
7	49	48	13.921468284922
7	50	49	13.897015957548
7	51	50	13.964752228069
7	52	51	13.91147568828
7	53	52	13.974545761354
7	54	53	13.965476403411
7	55	54	13.989670229855
7	56	55	13.951804798429
7	57	56	13.892850009208
7	58	57	13.958218119799
7	59	58	13.933717581006
7	60	59	13.982012811573
7	61	60	13.954506225567
7	62	61	13.954468280503
7	63	62	13.914126337939
7	64	63	13.998578815588
7	65	64	13.932968401979
7	66	65	13.954534002345
7	67	66	13.957377178506
7	68	67	13.932528918332
7	69	68	13.977439161665
7	70	69	13.873707558191
7	71	70	13.945779315263
7	72	71	13.942668949808
7	73	72	13.91575948562
7	74	73	13.907857767178
7	76	74	11.509649644586
7	77	75	8.354934886828
7	78	76	5.5437759062738
7	79	77	3.307407476074
7	80	78	1.6348540751313
7	81	79	0.71722348573033
8	7	6	1.7932460927567
8	8	7	1.9587017235276
8	9	8	1.7806746143266
8	10	9	1.8842620940111
8	11	10	1.9413380167005
8	12	11	0.5583961215709
8	13	12	-0.073857417434921
8	14	13	0.0092065779981212
8	15	14	0.10214026641101
8	16	15	-0.096765000070445
8	17	16	-0.0036033386224883
8	18	17	0.039975998615846
8	19	18	-0.036115438612178
8	20	19	0.074191348995083
8	21	20	-0.018364551486448
8	22	21	-0.84955461610103
8	23	22	-1.1580047743662
8	24	23	-4.4608324981877
8	25	24	0.38092674279862
8	26	25	1.7156944106473
8	27	26	2.0360211738362
8	28	27	1.9703013633797
8	29	28	0.39196811840698
8	30	29	-0.054819778876846
8	31	30	0.010270397982096
8	32	31	0.056614504742901
8	33	32	-0.029954661100637
8	34	33	-0.016613695521373
8	35	34	-0.030163104203529
8	36	35	0.018933158169965
8	37	36	-0.029659791311714
8	38	37	0.091685234303586
8	39	38	-0.045763628156855
8	40	39	-0.039857979963999
8	41	40	0.065247988859191
8	42	41	-0.08489584519295
8	43	42	-0.0022564603248618
8	44	43	0.045091817758511
8	45	44	-0.0043246553349299
8	46	45	0.029991914208512
8	47	46	0.015533079409506
8	48	47	-0.0495849183877
8	49	48	0.0027827199501917
8	50	49	-0.024452327373437
8	51	50	0.067736270520836
8	52	51	-0.053276539789513
8	53	52	0.063070073074195
8	54	53	-0.0090693579427903
8	55	54	0.024193826443517
8	56	55	-0.037865431425162
8	57	56	-0.058954789221753
8	58	57	0.065368110591081
8	59	58	-0.024500538792926
8	60	59	0.048295230567454
8	61	60	-0.027506586005911
8	62	61	-3.7945064249811e-05
8	63	62	-0.040341942564119
8	64	63	0.08445247764932
8	65	64	-0.065610413609539
8	66	65	0.021565600365866
8	67	66	0.0028431761614058
8	68	67	-0.024848260174041
8	69	68	0.044910243332852
8	70	69	-0.10373160347343
8	71	70	0.072071757072118
8	72	71	-0.0031103654555054
8	73	72	-0.02690946418792
8	74	73	-0.0079017184418628
8	76	74	-2.3982081225927
8	77	75	-3.1547147577576
8	78	76	-2.8111589805542
8	79	77	-2.2363684301998
8	80	78	-1.6725534009427
8	81	79	-0.91763058940095
9	7	6	3.9274001426868
9	8	7	5.2041356246368
9	9	8	5.7574507674447
9	10	9	7.0006276784153
9	11	10	8.2432295261252
9	12	11	3.9110016848773
9	13	12	1.7792042638201
9	14	13	2.0579365757541
9	15	14	2.3818636967155
9	16	15	1.7037407999188
9	17	16	2.0152488537881
9	18	17	2.1655550639215
9	19	18	1.906797412239
9	20	19	2.2849654495652
9	21	20	1.9716653983805
9	22	21	0.973
9	23	22	0.973
9	24	23	0.973
9	25	24	2.2554772362628
9	26	25	5.6120472675651
9	27	26	7.5119842129131
9	28	27	8.4455276517466
9	29	28	3.3560730035355
9	30	29	1.8466200733259
9	31	30	2.0660268329645
9	32	31	2.2281549844786
9	33	32	1.9335288120447
9	34	33	1.9767670407741
9	35	34	1.9283950769156
9	36	35	2.0949799016024
9	37	36	1.9290667558988
9	38	37	2.3468857079218
9	39	38	1.8793040227889
9	40	39	1.8954681876561
9	41	40	2.2553467174174
9	42	41	1.7429567241042
9	43	42	2.0192482635441
9	44	43	2.1827359052182
9	45	44	2.0164367628106
9	46	45	2.1348602115454
9	47	46	2.0878872407227
9	48	47	1.8642059318509
9	49	48	2.0401536442479
9	50	49	1.9464315106901
9	51	50	2.2632042711189
9	52	51	1.851180617826
9	53	52	2.2486511283506
9	54	53	2.0047870143605
9	55	54	2.1193583924862
9	56	55	1.9065956504161
9	57	56	1.8305118457369
9	58	57	2.2544630998412
9	59	58	1.9497933768092
9	60	59	2.199742909699
9	61	60	1.9416842431598
9	62	61	2.0340583936544
9	63	62	1.8947902862501
9	64	63	2.3236156337703
9	65	64	1.8116807487081
9	66	65	2.1067187558746
9	67	66	2.0440470145686
9	68	67	1.9485115452067
9	69	68	2.1878187851485
9	70	69	1.6791237400594
9	71	70	2.2755265645048
9	72	71	2.0225291815531
9	73	72	1.9399893034582
9	74	73	2.0029455902709
9	76	74	0.973
9	77	75	0.973
9	78	76	0.973
9	79	77	0.973
9	80	78	0.973
9	81	79	0.973
10	8	7	2414.8848622198
10	9	8	2414.8848622198
10	10	9	2412.0691307599
10	11	10	2407.3819784434
10	12	11	2402.4639103656
10	13	12	2396.2016479742
10	14	13	2388.5021761758
10	15	14	2379.5347220144
10	16	15	2369.7521497252
10	17	16	2359.9648396304
10	18	17	2350.1637192596
10	19	18	2340.717056727
10	20	19	2334.4889366638
10	21	20	2338.0188398167
10	22	21	2348.6970945761
10	23	22	2359.0578910074
10	24	23	2372.1753142256
10	25	24	2385.9847009928
10	26	25	2399.0560799135
10	27	26	2411.469456295
10	28	27	2420.8240344936
10	29	28	2428.2511095385
10	30	29	2431.5096723901
10	31	30	2433.2168502312
10	32	31	2435.2011956087
10	33	32	2437.29147981
10	34	33	2438.672857787
10	35	34	2439.5458305131
10	36	35	2440.5569901068
10	37	36	2441.5662171456
10	38	37	2442.5764760413
10	39	38	2443.5864360537
10	40	39	2444.5969193554
10	41	40	2445.6077267987
10	42	41	2446.6171177449
10	43	42	2447.6285385494
10	44	43	2448.6389437378
10	45	44	2449.6489775468
10	46	45	2450.659299592
10	47	46	2449.5461587089
10	48	47	2448.4337074455
10	49	48	2447.3207898499
10	50	49	2446.207873206
10	51	50	2445.0940501215
10	52	51	2443.9833638043
10	53	52	2442.8694501355
10	54	53	2441.7571938549
10	55	54	2440.6460889142
10	56	55	2439.6824932018
10	57	56	2438.741084579
10	58	57	2437.8178922307
10	59	58	2432.628875918
10	60	59	2422.099758557
10	61	60	2408.9617932498
10	62	61	2395.0275024913
10	63	62	2381.1194986589
10	64	63	2367.2108877165
10	65	64	2353.2913366285
10	66	65	2339.3363710896
10	67	66	2325.3913249692
10	68	67	2311.4476897647
10	69	68	2297.4983647275
10	70	69	2283.5801531249
10	71	70	2269.6389171832
10	72	71	2255.7127677456
10	73	72	2241.8359768615
10	74	73	2228.0496562888
10	76	74	2214.3204117303
10	77	75	2201.130388199
10	78	76	2187.9466372953
10	79	77	2175.8540693277
10	80	78	2166.8951848735
10	81	79	2160.0560415246
11	8	7	1578.4476927174
11	9	8	1578.4476927174
11	10	9	1579.4816146148
11	11	10	1581.3305685576
11	12	11	1586.311893981
11	13	12	1592.6547030602
11	14	13	1600.4532072712
11	15	14	1609.5360029312
11	16	15	1619.4444009606
11	17	16	1629.3575977338
11	18	17	1639.2847824143
11	19	18	1649.4765304932
11	20	19	1661.4854336744
11	21	20	1673.8446300924
11	22	21	1682.7957309801
11	23	22	1692.1393567109
11	24	23	1695.6439150097
11	25	24	1697.4374776948
11	26	25	1698.6863156371
11	27	26	1699.860083269
11	28	27	1700.7446211064
11	29	28	1701.4003788568
11	30	29	1709.757081449
11	31	30	1720.9911797
11	32	31	1734.0491812732
11	33	32	1747.8043141738
11	34	33	1761.6824669717
11	35	34	1775.5982529195
11	36	35	1789.5036912933
11	37	36	1803.3825532272
11	38	37	1817.2756052278
11	39	38	1831.1645469936
11	40	39	1845.0606850199
11	41	40	1858.9612806309
11	42	41	1872.8423966132
11	43	42	1886.7514271513
11	44	43	1900.646490965
11	45	44	1914.536447579
11	46	45	1928.4487420022
11	47	46	1942.3421864314
11	48	47	1956.2270235084
11	49	48	1970.117681019
11	50	49	1984.0083266487
11	51	50	1997.9102858361
11	52	51	2011.7730940934
11	53	52	2025.6761838896
11	54	53	2039.5585873295
11	55	54	2053.4266205495
11	56	55	2067.3284383547
11	57	56	2081.2374921273
11	58	57	2095.1151711773
11	59	58	2107.8121583294
11	60	59	2116.6019557538
11	61	60	2120.9589145361
11	62	61	2120.4882719275
11	63	62	2120.0185171831
11	64	63	2119.548741932
11	65	64	2119.0785971684
11	66	65	2118.6072562514
11	67	66	2118.1362503711
11	68	67	2117.6652921457
11	69	68	2117.1941417418
11	70	69	2116.724042221
11	71	70	2116.2531650327
11	72	71	2115.7827974036
11	73	72	2114.7194869779
11	74	73	2112.7644801643
11	76	74	2110.4801872596
11	77	75	2106.0067454157
11	78	76	2101.5354309557
11	79	77	2096.841327128
11	80	78	2091.5673733056
11	81	79	2087.5412776032
12	9	8	3.930963162637
12	10	9	5.9263112237273
12	11	10	7.8381960794392
12	12	11	9.790430662247
12	13	12	11.728100012452
12	14	13	13.629514704516
12	15	14	13.941568216505
12	16	15	13.881279769889
12	17	16	13.897868440901
12	18	17	13.925429278756
12	19	18	13.988464023101
12	20	19	13.968606978769
12	21	20	13.918509052745
12	22	21	13.924308654484
12	23	22	13.951645852409
12	24	23	13.87926841794
12	25	24	12.793519969494
12	26	25	11.84351296104
12	27	26	7.4038563960913
12	28	27	8.4727548549238
12	29	28	10.367830629347
12	30	29	12.18869854925
12	31	30	13.961659159465
12	32	31	13.954832898835
12	33	32	13.985199820679
12	34	33	13.894128147855
12	35	34	13.93747920732
12	36	35	13.922516686122
12	37	36	13.936551663636
12	38	37	13.899921349036
12	39	38	13.905686459227
12	40	39	13.974518650502
12	41	40	13.926188751743
12	42	41	13.91506882193
12	43	42	13.902084701743
12	44	43	13.906688486487
12	45	44	13.974945872892
12	46	45	13.897515056985
12	47	46	13.921723058985
12	48	47	13.971591069859
12	49	48	13.925448836959
12	50	49	13.871581884674
12	51	50	13.876423048137
12	52	51	13.873938687814
12	53	52	13.902598275633
12	54	53	13.87539361449
12	55	54	13.972987024514
12	56	55	13.957628285089
12	57	56	13.950985880545
12	58	57	13.943263569523
12	59	58	13.891897078918
12	60	59	13.874182712052
12	61	60	13.982985400616
12	62	61	13.927164004399
12	63	62	13.899862960158
12	64	63	13.960168966714
12	65	64	13.961850514959
12	66	65	13.962242161995
12	67	66	13.925234322341
12	68	67	13.991972472956
12	69	68	13.975208927125
12	70	69	13.946616810667
12	71	70	13.894927249895
12	72	71	13.997537077854
12	73	72	13.937148143742
12	74	73	13.949254455173
12	76	74	13.997392567724
12	77	75	13.892845066143
12	78	76	11.787824280837
12	79	77	9.2477227385416
12	80	78	6.86540096584
12	81	79	4.7046209588023
13	10	9	1.9953480610903
13	11	10	1.9118848557118
13	12	11	1.9522345828079
13	13	12	1.9376693502045
13	14	13	1.9014146920643
13	15	14	0.31205351198868
13	16	15	-0.060288446615449
13	17	16	0.016588671011849
13	18	17	0.027560837855562
13	19	18	0.063034744344186
13	20	19	-0.019857044331729
13	21	20	-0.050097926023881
13	22	21	0.0057996017392714
13	23	22	0.027337197924499
13	24	23	-0.072377434468363
13	25	24	-1.0857484484466
13	26	25	-0.95000700845353
13	27	26	-4.439656564949
13	28	27	1.0688984588324
13	29	28	1.8950757744233
13	30	29	1.8208679199032
13	31	30	1.7729606102145
13	32	31	-0.0068262606300422
13	33	32	0.03036692184396
13	34	33	-0.091071672823745
13	35	34	0.043351059465204
13	36	35	-0.01496252119774
13	37	36	0.014034977513365
13	38	37	-0.036630314600188
13	39	38	0.0057651101914225
13	40	39	0.068832191275433
13	41	40	-0.048329898759256
13	42	41	-0.01111992981285
13	43	42	-0.012984120186884
13	44	43	0.0046037847432316
13	45	44	0.068257386405021
13	46	45	-0.077430815906265
13	47	46	0.02420800199965
13	48	47	0.049868010873906
13	49	48	-0.046142232900019
13	50	49	-0.053866952285171
13	51	50	0.0048411634634249
13	52	51	-0.0024843603232867
13	53	52	0.028659587819128
13	54	53	-0.027204661143477
13	55	54	0.09759341002442
13	56	55	-0.015358739425428
13	57	56	-0.0066424045432356
13	58	57	-0.007722311022226
13	59	58	-0.051366490605288
13	60	59	-0.017714366866276
13	61	60	0.10880268856417
13	62	61	-0.055821396217215
13	63	62	-0.027301044240593
13	64	63	0.06030600655591
13	65	64	0.0016815482452515
13	66	65	0.00039164703572148
13	67	66	-0.037007839654107
13	68	67	0.066738150615711
13	69	68	-0.0167635458312
13	70	69	-0.028592116457874
13	71	70	-0.051689560771921
13	72	71	0.10260982795851
13	73	72	-0.060388934111689
13	74	73	0.01210631143069
13	76	74	0.048138112551532
13	77	75	-0.10454750158125
13	78	76	-2.1050207853061
13	79	77	-2.5401015422956
13	80	78	-2.3823217727016
13	81	79	-2.1607800070377
14	10	9	4.2649508166984
14	11	10	5.1441608835298
14	12	11	6.2752675611406
14	13	12	7.3015557220543
14	14	13	8.2469806235914
14	15	14	3.0813423760871
14	16	15	1.825038103975
14	17	16	2.0839753981971
14	18	17	2.1237162576214
14	19	18	2.2501690272635
14	20	19	1.9687844028223
14	21	20	1.8624692368163
14	22	21	2.0505690853877
14	23	22	2.1258147014109
14	24	23	1.7844264067381
14	25	24	0.973
14	26	25	0.973
14	27	26	0.973
14	28	27	3.7575341079103
14	29	28	6.4482222684255
14	30	29	7.2140195323343
14	31	30	8.0005078452345
14	32	31	2.0112657729674
14	33	32	2.1396802881933
14	34	33	1.7230808185304
14	35	34	2.1780640158967
14	36	35	1.980720158986
14	37	36	2.0794954629949
14	38	37	1.9059152732614
14	39	38	2.0485298427513
14	40	39	2.2680539427787
14	41	40	1.8690933945628
14	42	41	1.9928741031296
14	43	42	1.9853406570184
14	44	43	2.0447410785649
14	45	44	2.2661688405632
14	46	45	1.7690384486571
14	47	46	2.1120645090544
14	48	47	2.2038504354464
14	49	48	1.8763684319447
14	50	49	1.8456610488087
14	51	50	2.0424227277346
14	52	51	2.0176736696174
14	53	52	2.1249196677245
14	54	53	1.9351566644326
14	55	54	2.3647248781457
14	56	55	1.9828454643184
14	57	56	2.0114971183472
14	58	57	2.007091813677
14	59	58	1.8558336695686
14	60	59	1.9667740746073
14	61	60	2.4037578966905
14	62	61	1.844036691971
14	63	62	1.9371616602798
14	64	63	2.2376623461065
14	65	64	2.0405988072341
14	66	65	2.0362986285583
14	67	66	1.9070037954822
14	68	67	2.2630700095878
14	69	68	1.9798474403324
14	70	69	1.9372818212763
14	71	70	1.8550225742329
14	72	71	2.3847397299678
14	73	72	1.8295794064806
14	74	73	2.0743518631084
14	76	74	2.2009680002035
14	77	75	1.6778590032699
14	78	76	0.973
14	79	77	0.973
14	80	78	0.973
14	81	79	0.973
15	11	10	2414.8652957816
15	12	11	2414.8652957816
15	13	12	2411.9402292009
15	14	13	2407.1594214574
15	15	14	2402.0350675649
15	16	15	2395.5354035812
15	17	16	2387.5598131203
15	18	17	2378.2983909701
15	19	18	2368.4972038758
15	20	19	2358.719633554
15	21	20	2348.9248444787
15	22	21	2339.614370346
15	23	22	2334.1997176057
15	24	23	2339.4193692133
15	25	24	2350.023330241
15	26	25	2360.3662725991
15	27	26	2373.90233667
15	28	27	2387.7152259793
15	29	28	2400.5914429313
15	30	29	2412.9398871803
15	31	30	2421.7139854309
15	32	31	2429.0882121673
15	33	32	2431.6639768599
15	34	33	2433.4302155024
15	35	34	2435.4611475593
15	36	35	2437.5533698815
15	37	36	2438.7684759141
15	38	37	2439.671540139
15	39	38	2440.6813741141
15	40	39	2441.6917844916
15	41	40	2442.7022041357
15	42	41	2443.7124593587
15	43	42	2444.7229332504
15	44	43	2445.7337078364
15	45	44	2446.7459111849
15	46	45	2447.757486716
15	47	46	2448.7683903823
15	48	47	2449.7777371067
15	49	48	2450.5176811377
15	50	49	2449.4057673637
15	51	50	2448.2921364765
15	52	51	2447.1808208324
15	53	52	2446.0691226661
15	54	53	2444.9566500478
15	55	54	2443.8447802094
15	56	55	2442.731477023
15	57	56	2441.6197022425
15	58	57	2440.5080080784
15	59	58	2439.5670555097
15	60	59	2438.6556009268
15	61	60	2437.5062560235
15	62	61	2431.5722499692
15	63	62	2420.527699944
15	64	63	2407.2382113171
15	65	64	2393.3269784888
15	66	65	2379.3955530388
15	67	66	2365.4745847809
15	68	67	2351.529199079
15	69	68	2337.6079130118
15	70	69	2323.6725767179
15	71	70	2309.7385225614
15	72	71	2295.8080973643
15	73	72	2281.8952010303
15	74	73	2267.9654732505
15	76	74	2254.0466482575
15	77	75	2240.1839215464
15	78	76	2226.3952670011
15	79	77	2212.7433891206
15	80	78	2199.5532363574
15	81	79	2186.6275330838
16	11	10	1578.4548774119
16	12	11	1578.4548774119
16	13	12	1579.5289465943
16	14	13	1581.5559881236
16	15	14	1586.7462526578
16	16	15	1593.3295168448
16	17	16	1601.4076912217
16	18	17	1610.7882359559
16	19	18	1620.7154882178
16	20	19	1630.6188199436
16	21	20	1640.5395918936
16	22	21	1650.8881406859
16	23	22	1663.2272230769
16	24	23	1674.9756418047
16	25	24	1683.991763521
16	26	25	1693.3192880014
16	27	26	1695.9020503219
16	28	27	1697.6139621651
16	29	28	1698.8314944636
16	30	29	1699.9991223291
16	31	30	1700.8287719106
16	32	31	1701.8119543158
16	33	32	1710.77248332
16	34	33	1722.3952316754
16	35	34	1735.7597972872
16	36	35	1749.5276840087
16	37	36	1763.4065813264
16	38	37	1777.3270081691
16	39	38	1791.2142166747
16	40	39	1805.1093518483
16	41	40	1819.0046144547
16	42	41	1832.8976159496
16	43	42	1846.7936245678
16	44	43	1860.6937683271
16	45	44	1874.6135603888
16	46	45	1888.5247187214
16	47	46	1902.4266375881
16	48	47	1916.3071454344
16	49	48	1930.2163243052
16	50	49	1944.0944528161
16	51	50	1957.9940131316
16	52	51	1971.8646762054
16	53	52	1985.7401136523
16	54	53	1999.6252172682
16	55	54	2013.5027974071
16	56	55	2027.3982675895
16	57	56	2041.2746612821
16	58	57	2055.1500487765
16	59	58	2069.0339985425
16	60	59	2082.9232102502
16	61	60	2096.7668430749
16	62	61	2109.1502521159
16	63	62	2117.3046830418
16	64	63	2120.90069908
16	65	64	2120.4308352731
16	66	65	2119.9602894429
16	67	66	2119.4900968131
16	68	67	2119.0190794626
16	69	68	2118.5488760993
16	70	69	2118.0781981768
16	71	70	2117.6075635599
16	72	71	2117.1370515134
16	73	72	2116.6671315199
16	74	73	2116.1966430303
16	76	74	2115.7265227912
16	77	75	2114.4852127647
16	78	76	2112.5298749758
16	79	77	2109.945334618
16	80	78	2105.4718489451
16	81	79	2101.0880522262
17	12	11	4.0076977833542
17	13	12	6.1677344774264
17	14	13	8.1549676716625
17	15	14	10.178332106699
17	16	15	12.262859039094
17	17	16	13.909239285488
17	18	17	13.972104677679
17	19	18	13.964405047395
17	20	19	13.904001857305
17	21	20	13.959390929798
17	22	21	13.878038117993
17	23	22	13.946876353603
17	24	23	13.944667257406
17	25	24	13.919344021892
17	26	25	13.927560248445
17	27	26	13.871213583788
17	28	27	12.691334807668
17	29	28	11.253789109264
17	30	29	6.8021452137647
17	31	30	8.5806848426844
17	32	31	10.511503565412
17	33	32	12.634297992723
17	34	33	13.965718502484
17	35	34	13.984844662666
17	36	35	13.956789441942
17	37	36	13.956542154332
17	38	37	13.917345386401
17	39	38	13.978046209081
17	40	39	13.982312166321
17	41	40	13.915473192113
17	42	41	13.879970237834
17	43	42	13.897895857247
17	44	43	13.999869057706
17	45	44	13.978634591533
17	46	45	13.942230677728
17	47	46	13.955766034983
17	48	47	13.950300372976
17	49	48	13.917481608128
17	50	49	13.942320762996
17	51	50	13.893100212866
17	52	51	13.91633811252
17	53	52	13.928179549885
17	54	53	13.968941585214
17	55	54	13.947614409933
17	56	55	13.993828555658
17	57	56	13.915365449623
17	58	57	13.876728287677
17	59	58	13.918426910553
17	60	59	13.974088552413
17	61	60	13.92781890474
17	62	61	13.871840020602
17	63	62	13.950818891171
17	64	63	13.896373478309
17	65	64	13.98123223257
17	66	65	13.934642261642
17	67	66	13.995758003502
17	68	67	13.879077432866
17	69	68	13.899420192223
17	70	69	13.964884717481
17	71	70	13.997399434138
17	72	71	13.963054893557
17	73	72	13.99507131309
17	74	73	13.959758597296
17	76	74	13.999156328384
17	77	75	13.969890658425
17	78	76	13.980162032277
17	79	77	13.896995161234
17	80	78	12.895918457595
17	81	79	10.316482094486
18	13	12	2.1600366940722
18	14	13	1.9872331942362
18	15	14	2.0233644350362
18	16	15	2.0845269323955
18	17	16	1.6463802463939
18	18	17	0.062865392190869
18	19	18	-0.0076996302837493
18	20	19	-0.060403190089856
18	21	20	0.055389072492252
18	22	21	-0.081352811804972
18	23	22	0.068838235610166
18	24	23	-0.0022090961970385
18	25	24	-0.025323235513643
18	26	25	0.0082162265526122
18	27	26	-0.056346664656886
18	28	27	-1.1798787761197
18	29	28	-1.4375456984038
18	30	29	-4.4516438954996
18	31	30	1.7785396289197
18	32	31	1.9308187227277
18	33	32	2.1227944273106
18	34	33	1.3314205097611
18	35	34	0.01912616018206
18	36	35	-0.028055220723617
18	37	36	-0.00024728761054682
18	38	37	-0.039196767930406
18	39	38	0.060700822679792
18	40	39	0.0042659572395483
18	41	40	-0.06683897420764
18	42	41	-0.035502954279073
18	43	42	0.017925619413145
18	44	43	0.10197320045903
18	45	44	-0.021234466172753
18	46	45	-0.036403913805263
18	47	46	0.013535357255023
18	48	47	-0.0054656620067544
18	49	48	-0.032818764848635
18	50	49	0.024839154868388
18	51	50	-0.049220550130123
18	52	51	0.023237899653614
18	53	52	0.011841437364929
18	54	53	0.040762035329827
18	55	54	-0.021327175281478
18	56	55	0.046214145724662
18	57	56	-0.078463106034324
18	58	57	-0.038637161946388
18	59	58	0.041698622875845
18	60	59	0.055661641859915
18	61	60	-0.046269647672306
18	62	61	-0.055978884138167
18	63	62	0.078978870569262
18	64	63	-0.054445412862115
18	65	64	0.084858754260932
18	66	65	-0.046589970928617
18	67	66	0.061115741860121
18	68	67	-0.11668057063594
18	69	68	0.0203427593573
18	70	69	0.065464525257703
18	71	70	0.032514716656879
18	72	71	-0.034344540580641
18	73	72	0.032016419533175
18	74	73	-0.035312715794426
18	76	74	0.039397731088101
18	77	75	-0.029265669959132
18	78	76	0.010271373852158
18	79	77	-0.083166871042923
18	80	78	-1.0010767036393
18	81	79	-2.5794363631086
19	13	12	4.6399364442395
19	14	13	5.459099048015
19	15	14	6.6616810382017
19	16	15	8.0324172249288
19	17	16	7.5484463594625
19	18	17	2.247674957111
19	19	18	2.0092894812461
19	20	19	1.8266349661585
19	21	20	2.2210298717235
19	22	21	1.7543037306746
19	23	22	2.264789170887
19	24	23	2.0257606197441
19	25	24	1.9456524984792
19	26	25	2.059016748537
19	27	26	1.8373388380236
19	28	27	0.973
19	29	28	0.973
19	30	29	0.973
19	31	30	5.2602175796137
19	32	31	6.6156566027659
19	33	32	8.3694083781091
19	34	33	6.5165491496521
19	35	34	2.1017560319966
19	36	35	1.9400571066544
19	37	36	2.0335662245147
19	38	37	1.8989280401226
19	39	38	2.2410813776431
19	40	39	2.0514099723484
19	41	40	1.8060532207838
19	42	41	1.9078333116417
19	43	42	2.0884562634303
19	44	43	2.3828885778754
19	45	44	1.9651224554136
19	46	45	1.910615850939
19	47	46	2.0798426520326
19	48	47	2.015384407742
19	49	48	1.9203331804895
19	50	49	2.1164070517746
19	51	50	1.8631262853673
19	52	51	2.108230627045
19	53	52	2.0712498573739
19	54	53	2.1728920736305
19	55	54	1.9617970432444
19	56	55	2.1940726512002
19	57	56	1.7670612526642
19	58	57	1.8970499029483
19	59	58	2.1703787731
19	60	59	2.2236475952785
19	61	60	1.876156120652
19	62	61	1.8386234882413
19	63	62	2.2993516664104
19	64	63	1.8459222947006
19	65	64	2.3228538313892
19	66	65	1.8757004712267
19	67	66	2.2445546956586
19	68	67	1.6362226447506
19	69	68	2.096714827559
19	70	69	2.2555743425322
19	71	70	2.1482652379368
19	72	71	1.9194912088098
19	73	72	2.1463276308042
19	74	73	1.9159241804067
19	76	74	2.1716810577018
19	77	75	1.9372331757794
19	78	76	2.0714211235731
19	79	77	1.7497841862042
19	80	78	0.973
19	81	79	0.973
20	14	13	2414.9020294819
20	15	14	2414.9020294819
20	16	15	2411.9226306152
20	17	16	2407.1557433844
20	18	17	2402.1104710221
20	19	18	2395.7699587477
20	20	19	2388.0304223568
20	21	20	2379.4738079484
20	22	21	2370.893774931
20	23	22	2362.3077945379
20	24	23	2353.7435980395
20	25	24	2345.1609503828
20	26	25	2337.382531011
20	27	26	2333.9513923901
20	28	27	2339.5342791209
20	29	28	2348.8453277851
20	30	29	2357.9087556405
20	31	30	2368.8976739903
20	32	31	2380.9775286298
20	33	32	2393.1030453129
20	34	33	2405.2335576123
20	35	34	2416.5418459401
20	36	35	2423.9663700609
20	37	36	2430.570008137
20	38	37	2432.1000471369
20	39	38	2433.9002697327
20	40	39	2435.9543662666
20	41	40	2437.9596728822
20	42	41	2438.9494181712
20	43	42	2439.9070256213
20	44	43	2440.9176562928
20	45	44	2441.9269052453
20	46	45	2442.9366141059
20	47	46	2443.9464281293
20	48	47	2444.9573541252
20	49	48	2445.9691156872
20	50	49	2446.979716951
20	51	50	2447.9896090399
20	52	51	2448.9998733379
20	53	52	2450.0085675253
20	54	53	2450.2645866362
20	55	54	2449.1499465979
20	56	55	2448.0369973981
20	57	56	2446.9233345203
20	58	57	2445.8120863364
20	59	58	2444.7009855164
20	60	59	2443.5879624323
20	61	60	2442.4739204658
20	62	61	2441.3600381962
20	63	62	2440.2864050268
20	64	63	2439.3445139695
20	65	64	2438.5901630576
20	66	65	2436.8932832642
20	67	66	2429.488703159
20	68	67	2417.5025738811
20	69	68	2403.9129781366
20	70	69	2389.9861979192
20	71	70	2376.0739265668
20	72	71	2362.1500415469
20	73	72	2348.2060115275
20	74	73	2334.2734054149
20	76	74	2320.3213743683
20	77	75	2306.390282625
20	78	76	2292.4858088302
20	79	77	2278.5482186148
20	80	78	2264.6132597643
20	81	79	2250.6824459058
21	14	13	1578.4413889889
21	15	14	1578.4413889889
21	16	15	1579.5354087027
21	17	16	1581.5597135043
21	18	17	1586.6698793434
21	19	18	1593.0919447746
21	20	19	1600.9310288979
21	21	20	1609.5977004888
21	22	21	1618.2880919036
21	23	22	1626.984507191
21	24	23	1635.6588583943
21	25	24	1644.3518980779
21	26	25	1653.7452424029
21	27	26	1665.1186078088
21	28	27	1675.0684384657
21	29	28	1682.929411401
21	30	29	1691.1030376544
21	31	30	1695.1540113101
21	32	31	1696.8415124407
21	33	32	1698.123416462
21	34	33	1699.2704374064
21	35	34	1700.3397115832
21	36	35	1700.9751795586
21	37	36	1703.8619754324
21	38	37	1713.6420474732
21	39	38	1725.4884275207
21	40	39	1739.0054271705
21	41	40	1752.7795728892
21	42	41	1766.6691963989
21	43	42	1780.5653979182
21	44	43	1794.4635625677
21	45	44	1808.342725859
21	46	45	1822.2282137927
21	47	46	1836.1151479203
21	48	47	1850.0173738636
21	49	48	1863.9310904881
21	50	49	1877.8288507257
21	51	50	1891.7168584093
21	52	51	1905.6099847034
21	53	52	1919.4815188777
21	54	53	1933.3752725068
21	55	54	1947.287428339
21	56	55	1961.1784803104
21	57	56	1975.07843991
21	58	57	1988.9482609928
21	59	58	2002.8162427824
21	60	59	2016.7082169261
21	61	60	2030.6129080458
21	62	61	2044.5156059386
21	63	62	2058.405807049
21	64	63	2072.3219886608
21	65	64	2086.2172475774
21	66	65	2100.0155986995
21	67	66	2111.7128415443
21	68	67	2118.6569472738
21	69	68	2120.7883864809
21	70	69	2120.3179975469
21	71	70	2119.8480986627
21	72	71	2119.3778075166
21	73	72	2118.9068359565
21	74	73	2118.436250248
21	76	74	2117.965008446
21	77	75	2117.4944738867
21	78	76	2117.0248383721
21	79	77	2116.5540843215
21	80	78	2116.0834191469
21	81	79	2115.6128939744
22	15	14	4.1202440707026
22	16	15	6.098204819389
22	17	16	7.9892263333931
22	18	17	9.9395148638858
22	19	18	11.888312638128
22	20	19	12.215156767303
22	21	20	12.204687935296
22	22	21	12.224623291104
22	23	22	12.210776680999
22	24	23	12.179672799767
22	25	24	12.160016026092
22	26	25	12.139849843977
22	27	26	12.143721937142
22	28	27	12.197962211408
22	29	28	12.182525644068
22	30	29	12.239106989266
22	31	30	12.235862109773
22	32	31	12.230306803957
22	33	32	12.179537976573
22	34	33	9.6862829881538
22	35	34	6.6424673210172
22	36	35	8.8478549035121
22	37	36	10.859035527671
22	38	37	12.909402498856
22	39	38	13.992245385351
22	40	39	13.943547738914
22	41	40	13.916770352069
22	42	41	13.945535122917
22	43	42	13.906703865982
22	44	43	13.929781103753
22	45	44	13.945612282939
22	46	45	13.915959525181
22	47	46	13.967522231955
22	48	47	13.972525620006
22	49	48	13.883536923684
22	50	49	13.909812615521
22	51	50	13.926507747294
22	52	51	13.897951097498
22	53	52	13.93396450304
22	54	53	13.967009024217
22	55	54	13.893721483571
22	56	55	13.88568516843
22	57	56	13.927406547926
22	58	57	13.918185825639
22	59	58	13.942741125419
22	60	59	13.888825567171
22	61	60	13.956811681101
22	62	61	13.967852384013
22	63	62	13.917130999181
22	64	63	13.962056111419
22	65	64	13.973261172024
22	66	65	13.976665152721
22	67	66	13.929094264333
22	68	67	13.988442988638
22	69	68	13.963501574658
22	70	69	13.904512311171
22	71	70	13.881385968712
22	72	71	13.955823229789
22	73	72	13.91319160128
22	74	73	13.978148939102
22	76	74	13.952216081487
22	77	75	13.876740762778
22	78	76	13.930089543043
22	79	77	13.916144249656
22	80	78	13.998410794288
22	81	79	13.980069159993
23	16	15	1.9779607486865
23	17	16	1.8910215140041
23	18	17	1.9502885304927
23	19	18	1.9487977742427
23	20	19	0.32684412917498
23	21	20	-0.010468832007609
23	22	21	0.019935355808121
23	23	22	-0.013846610104666
23	24	23	-0.031103881231974
23	25	24	-0.019656773675234
23	26	25	-0.020166182115208
23	27	26	0.0038720931648282
23	28	27	0.054240274266339
23	29	28	-0.015436567340512
23	30	29	0.056581345198211
23	31	30	-0.0032448794925592
23	32	31	-0.0055553058162339
23	33	32	-0.050768827383871
23	34	33	-2.4932549884193
23	35	34	-3.0438156671366
23	36	35	2.2053875824949
23	37	36	2.0111806241586
23	38	37	2.0503669711854
23	39	38	1.082842886495
23	40	39	-0.048697646437214
23	41	40	-0.026777386844623
23	42	41	0.028764770848211
23	43	42	-0.038831256935373
23	44	43	0.023077237771357
23	45	44	0.015831179185771
23	46	45	-0.02965275775874
23	47	46	0.051562706774567
23	48	47	0.0050033880514082
23	49	48	-0.088988696322776
23	50	49	0.026275691837073
23	51	50	0.016695131773595
23	52	51	-0.028556649796665
23	53	52	0.036013405541889
23	54	53	0.033044521177652
23	55	54	-0.07328754064627
23	56	55	-0.0080363151407798
23	57	56	0.041721379496158
23	58	57	-0.009220722287429
23	59	58	0.024555299780332
23	60	59	-0.053915558247827
23	61	60	0.067986113929656
23	62	61	0.01104070291156
23	63	62	-0.050721384831705
23	64	63	0.044925112237689
23	65	64	0.011205060605425
23	66	65	0.0034039806970405
23	67	66	-0.047570888388437
23	68	67	0.059348724305165
23	69	68	-0.024941413979978
23	70	69	-0.058989263486584
23	71	70	-0.023126342459582
23	72	71	0.07443726107711
23	73	72	-0.042631628508678
23	74	73	0.064957337821832
23	76	74	-0.025932857615407
23	77	75	-0.075475318708923
23	78	76	0.053348780265079
23	79	77	-0.013945293386932
23	80	78	0.082266544632148
23	81	79	-0.018341634294485
24	16	15	4.3320714987557
24	17	16	5.183486961616
24	18	17	6.3519610936481
24	19	18	7.4221751260776
24	20	19	2.8298121443499
24	21	20	1.8359013100526
24	22	21	1.9272118037584
24	23	22	1.8264910266966
24	24	23	1.7731570813911
24	25	24	1.8050958468359
24	26	25	1.8019031629654
24	27	26	1.8725806391293
24	28	27	2.0255422754474
24	29	28	1.8193896864997
24	30	29	2.0366725650512
24	31	30	1.8599189826534
24	32	31	1.8526149529095
24	33	32	1.7154241454235
24	34	33	0.973
24	35	34	0.973
24	36	35	6.303427561984
24	37	36	7.0154445701984
24	38	37	8.3105242583869
24	39	38	5.6895407911334
24	40	39	1.8694269918782
24	41	40	1.940528745875
24	42	41	2.1299480592744
24	43	42	1.8991694406835
24	44	43	2.1091372507868
24	45	44	2.0864880630902
24	46	45	1.9308080812489
24	47	46	2.2090898398184
24	48	47	2.0528811368149
24	49	48	1.7292056532406
24	50	49	2.1177127068995
24	51	50	2.0873649665686
24	52	51	1.9327741224938
24	53	52	2.1530281120875
24	54	53	2.1466978352857
24	55	54	1.7825965253946
24	56	55	2.0002810933209
24	57	56	2.1714609797662
24	58	57	1.999553894506
24	59	58	2.1154986829051
24	60	59	1.8470270282863
24	61	60	2.2631030576132
24	62	61	2.0727204260443
24	63	62	1.8602543209442
24	64	63	2.1861282607859
24	65	64	2.0738417857687
24	66	65	2.0479224526271
24	67	66	1.8719038420292
24	68	67	2.237740187174
24	69	68	1.9511766336835
24	70	69	1.8314175593046
24	71	70	1.9493699794006
24	72	71	2.2846833100323
24	73	72	1.8870266347629
24	74	73	2.2554324657204
24	76	74	1.9467570144346
24	77	75	1.7738534084078
24	78	76	2.2107965887972
24	79	77	1.9835051352325
24	80	78	2.3162204831367
24	81	79	1.9750085314323
25	17	16	2414.866372544
25	18	17	2414.866372544
25	19	18	2411.9174920589
25	20	19	2407.1873548935
25	21	20	2402.1033929951
25	22	21	2395.6770685576
25	23	22	2387.9239549194
25	24	23	2378.7440047435
25	25	24	2368.9560721758
25	26	25	2359.1622850237
25	27	26	2349.3790714815
25	28	27	2340.0066479368
25	29	28	2334.2982135796
25	30	29	2338.9199148722
25	31	30	2349.5394145362
25	32	31	2359.6285321664
25	33	32	2372.2737052037
25	34	33	2385.1868441795
25	35	34	2397.5486702835
25	36	35	2407.0889696613
25	37	36	2415.9658388555
25	38	37	2423.647086352
25	39	38	2430.5697055
25	40	39	2432.1309365664
25	41	40	2433.9420996767
25	42	41	2436.0121670167
25	43	42	2438.0026650226
25	44	43	2438.973087457
25	45	44	2439.9357083738
25	46	45	2440.9457836029
25	47	46	2441.9557050534
25	48	47	2442.966328533
25	49	48	2443.9770825638
25	50	49	2444.9875938372
25	51	50	2445.9973880129
25	52	51	2447.0079984484
25	53	52	2448.0195114657
25	54	53	2449.0300190145
25	55	54	2450.0409876643
25	56	55	2450.2291497608
25	57	56	2449.1158151244
25	58	57	2448.0031307412
25	59	58	2446.8896077783
25	60	59	2445.7771886681
25	61	60	2444.6627922727
25	62	61	2443.5487240007
25	63	62	2442.4356510476
25	64	63	2441.3226709429
25	65	64	2440.2525785718
25	66	65	2439.3108728111
25	67	66	2438.5962522177
25	68	67	2436.7990822749
25	69	68	2429.1662416559
25	70	69	2417.0518166292
25	71	70	2403.4340603166
25	72	71	2389.5047204611
25	73	72	2375.5916553084
25	74	73	2361.6469742537
25	76	74	2347.7140670773
25	77	75	2333.8022433744
25	78	76	2319.8734200448
25	79	77	2305.9398448825
25	80	78	2292.0082472251
25	81	79	2278.0813544713
26	17	16	1578.4544820301
26	18	17	1578.4544820301
26	19	18	1579.5372955538
26	20	19	1581.5276954006
26	21	20	1586.6770484103
26	22	21	1593.1860297397
26	23	22	1601.0388657451
26	24	23	1610.3368905932
26	25	24	1620.2507178467
26	26	25	1630.1704749865
26	27	26	1640.0795225166
26	28	27	1650.3859643145
26	29	28	1662.6340421
26	30	29	1674.572302388
26	31	30	1683.5553562185
26	32	31	1692.6539752008
26	33	32	1695.658621354
26	34	33	1697.3425149294
26	35	34	1698.5437799906
26	36	35	1699.4458790058
26	37	36	1700.285246267
26	38	37	1700.9566909699
26	39	38	1703.861074903
26	40	39	1713.8453156259
26	41	40	1725.7636898225
26	42	41	1739.3857854959
26	43	42	1753.170717068
26	44	43	1767.0707531869
26	45	44	1780.9598423252
26	46	45	1794.8503685482
26	47	46	1808.7387800114
26	48	47	1822.6368457591
26	49	48	1836.5367068434
26	50	49	1850.4332295349
26	51	50	1864.3198907189
26	52	51	1878.2177770855
26	53	52	1892.128075731
26	54	53	1906.0245472016
26	55	54	1919.9273597188
26	56	55	1933.8175707525
26	57	56	1947.7134334734
26	58	57	1961.6011801884
26	59	58	1975.4993934687
26	60	59	1989.3838292314
26	61	60	2003.2929440839
26	62	61	2017.1979635302
26	63	62	2031.0905601038
26	64	63	2044.9819978084
26	65	64	2058.9055836303
26	66	65	2072.8190275338
26	67	66	2086.7368559008
26	68	67	2100.5148639437
26	69	68	2112.1094423961
26	70	69	2118.8584406646
26	71	70	2120.7722106203
26	72	71	2120.3017352335
26	73	72	2119.8318095375
26	74	73	2119.3608159879
26	76	74	2118.8902201112
26	77	75	2118.4203363461
26	78	76	2117.9498784048
26	79	77	2117.4792599659
26	80	78	2117.0087083196
26	81	79	2116.5383155849
27	18	17	4.11254450365
27	19	18	6.0975231633921
27	20	19	8.1241239797909
27	21	20	10.018434339895
27	22	21	11.94044197294
27	23	22	13.966010854098
27	24	23	13.99429374554
27	25	24	13.992908905046
27	26	25	13.889738958394
27	27	26	13.996094578244
27	28	27	13.943261206169
27	29	28	13.961094655516
27	30	29	13.829256838197
27	31	30	13.436515939642
27	32	31	13.16217219069
27	33	32	12.955925744517
27	34	33	11.26758099839
27	35	34	8.5044873526649
27	36	35	9.3420117710427
27	37	36	6.9079266154914
27	38	37	9.1319836530982
27	39	38	10.970689421588
27	40	39	12.982363875891
27	41	40	13.992697958478
27	42	41	13.936582251703
27	43	42	13.977668084782
27	44	43	13.986179260183
27	45	44	13.884867181559
27	46	45	13.927137885792
27	47	46	13.910710662541
27	48	47	13.909766360957
27	49	48	13.940070941378
27	50	49	13.877076953631
27	51	50	13.90827997843
27	52	51	13.954862964205
27	53	52	13.893197995736
27	54	53	13.963183217549
27	55	54	13.948198468271
27	56	55	13.944161438567
27	57	56	13.928642164022
27	58	57	13.919632288448
27	59	58	13.893341971666
27	60	59	13.941880325
27	61	60	13.998108282317
27	62	61	13.878701872779
27	63	62	13.982008344322
27	64	63	13.95228849458
27	65	64	13.945977008874
27	66	65	13.898765254379
27	67	66	13.884750159571
27	68	67	13.956998247474
27	69	68	13.973321173731
27	70	69	13.980317651937
27	71	70	13.967857702158
27	72	71	13.87017407299
27	73	72	13.907431576322
27	74	73	13.990516319459
27	76	74	13.891874899538
27	77	75	13.937335884271
27	78	76	13.921820710613
27	79	77	13.947281930207
27	80	78	13.958241502543
27	81	79	13.924777132559
28	19	18	1.984978659742
28	20	19	2.0266008163989
28	21	20	1.8943103601038
28	22	21	1.9220076330448
28	23	22	2.0255688811579
28	24	23	0.028282891442068
28	25	24	-0.0013848404935555
28	26	25	-0.10316994665191
28	27	26	0.10635561984964
28	28	27	-0.05283337207511
28	29	28	0.017833449346945
28	30	29	-0.13183781731896
28	31	30	-0.39274089855419
28	32	31	-0.27434374895275
28	33	32	-0.20624644617294
28	34	33	-1.6883447461266
28	35	34	-2.7630936457253
28	36	35	0.83752441837784
28	37	36	-2.4340851555514
28	38	37	2.2240570376068
28	39	38	1.8387057684897
28	40	39	2.011674454303
28	41	40	1.0103340825873
28	42	41	-0.056115706774872
28	43	42	0.041085833078251
28	44	43	0.0085111754015088
28	45	44	-0.10131207862403
28	46	45	0.042270704233088
28	47	46	-0.016427223251666
28	48	47	-0.00094430158380554
28	49	48	0.030304580421653
28	50	49	-0.062993987747468
28	51	50	0.031203024799471
28	52	51	0.046582985774148
28	53	52	-0.061664968468248
28	54	53	0.069985221812967
28	55	54	-0.01498474927852
28	56	55	-0.0040370297036123
28	57	56	-0.015519274545367
28	58	57	-0.0090098755736836
28	59	58	-0.026290316781962
28	60	59	0.048538353333717
28	61	60	0.056227957317605
28	62	61	-0.11940640953835
28	63	62	0.10330647154246
28	64	63	-0.029719849741086
28	65	64	-0.0063114857068296
28	66	65	-0.047211754494347
28	67	66	-0.014015094807837
28	68	67	0.072248087902555
28	69	68	0.016322926257271
28	70	69	0.0069964782055472
28	71	70	-0.01245994977886
28	72	71	-0.097683629167731
28	73	72	0.03725750333164
28	74	73	0.083084743137006
28	76	74	-0.098641419920606
28	77	75	0.04546098473249
28	78	76	-0.015515173657331
28	79	77	0.025461219593417
28	80	78	0.010959572335704
28	81	79	-0.033464369983411
29	19	18	4.3420194955082
29	20	19	5.5193514834883
29	21	20	6.2598837528783
29	22	21	7.3741311479677
29	23	22	8.8530434321966
29	24	23	2.13365012742
29	25	24	2.0334505025289
29	26	25	1.6822325806597
29	27	26	2.3971909293526
29	28	27	1.855503707612
29	29	28	2.0948662776171
29	30	29	1.5820533004124
29	31	30	0.973
29	32	31	0.973
29	33	32	1.2919135943652
29	34	33	0.973
29	35	34	0.973
29	36	35	3.5215990826384
29	37	36	0.973
29	38	37	6.5156001891765
29	39	38	6.6226227280211
29	40	39	8.2324265791826
29	41	40	5.4451881818867
29	42	41	1.8438824401449
29	43	42	2.1749617238466
29	44	43	2.0661193061513
29	45	44	1.6880752085194
29	46	45	2.1732746516206
29	47	46	1.9746491499881
29	48	47	2.0264593789898
29	49	48	2.1345252785117
29	50	49	1.8156237109116
29	51	50	2.1340627994298
29	52	51	2.1908906066732
29	53	52	1.8214679161102
29	54	53	2.2705861872936
29	55	54	1.9831738713403
29	56	55	2.0195663816392
29	57	56	1.9794538530861
29	58	57	2.0004054330977
29	59	58	1.93992520771
29	60	59	2.1959885866008
29	61	60	2.2283411417848
29	62	61	1.6270777435242
29	63	62	2.3851117990842
29	64	63	1.9340301948742
29	65	64	2.0121056433488
29	66	65	1.8703641945081
29	67	66	1.9801814994952
29	68	67	2.277460917713
29	69	68	2.0910828619716
29	70	69	2.0604034814904
29	71	70	1.9936118250746
29	72	71	1.6990698160563
29	73	72	2.1542627543164
29	74	73	2.3180133884777
29	76	74	1.6975579736318
29	77	75	2.185134912585
29	78	76	1.9787974726638
29	79	77	2.1190343839391
29	80	78	2.071439007203
29	81	79	1.9188526777571
30	20	19	2414.8588002162
30	21	20	2414.8588002162
30	22	21	2411.8128147094
30	23	22	2407.1980394585
30	24	23	2402.4260893827
30	25	24	2396.4703598532
30	26	25	2389.2222769874
30	27	26	2380.6475507468
30	28	27	2371.4675885644
30	29	28	2362.2853867376
30	30	29	2353.1014532228
30	31	30	2343.9167522368
30	32	31	2335.7592630242
30	33	32	2334.0763715116
30	34	33	2342.9457734847
30	35	34	2352.7630564623
30	36	35	2362.8963906621
30	37	36	2375.8179889829
30	38	37	2388.7877361589
30	39	38	2401.7727345998
30	40	39	2414.1003036475
30	41	40	2422.4116629731
30	42	41	2429.7483392076
30	43	42	2431.8187159494
30	44	43	2433.5863239734
30	45	44	2435.6333255254
30	46	45	2437.7251014278
30	47	46	2438.8311097387
30	48	47	2439.7530554269
30	49	48	2440.7623816305
30	50	49	2441.7733011593
30	51	50	2442.7835379966
30	52	51	2443.7947770543
30	53	52	2444.8051972518
30	54	53	2445.8169310748
30	55	54	2446.8271123795
30	56	55	2447.8372403309
30	57	56	2448.8468136862
30	58	57	2449.85968903
30	59	58	2450.4280289282
30	60	59	2449.3144754737
30	61	60	2448.1991392631
30	62	61	2447.0859020924
30	63	62	2445.9733171484
30	64	63	2444.8601511701
30	65	64	2443.7485429292
30	66	65	2442.6356549449
30	67	66	2441.5218806025
30	68	67	2440.4231678097
30	69	68	2439.4804845047
30	70	69	2438.6159434677
30	71	70	2437.2669850449
30	72	71	2430.7552516428
30	73	72	2419.3404297139
30	74	73	2405.9348433106
30	76	74	2392.0194124001
30	77	75	2378.1011852593
30	78	76	2364.1953779339
30	79	77	2350.2886800821
30	80	78	2336.3561129614
30	81	79	2322.4562056735
31	20	19	1578.4572625495
31	21	20	1578.4572625495
31	22	21	1579.5757325301
31	23	22	1581.5168734081
31	24	23	1586.3502014261
31	25	24	1592.3825349454
31	26	25	1599.723844354
31	27	26	1608.4088607347
31	28	27	1617.7068977449
31	29	28	1627.0072032055
31	30	29	1636.3092626277
31	31	30	1645.6120993933
31	32	31	1655.8232780742
31	33	32	1668.6061278731
31	34	33	1677.8234253228
31	35	34	1686.4625172503
31	36	35	1694.2570089856
31	37	36	1696.1883798428
31	38	37	1697.7153751645
31	39	38	1698.9431934794
31	40	39	1700.1088474551
31	41	40	1700.8851519767
31	42	41	1702.3337102309
31	43	42	1711.7907452099
31	44	43	1723.4225047911
31	45	44	1736.8928158525
31	46	45	1750.6577649042
31	47	46	1764.5359474756
31	48	47	1778.4480041219
31	49	48	1792.3282297663
31	50	49	1806.2303667758
31	51	50	1820.1231154287
31	52	51	1834.0296465904
31	53	52	1847.9249168085
31	54	53	1861.8382519679
31	55	54	1875.7302369392
31	56	55	1889.6214881958
31	57	56	1903.5051126648
31	58	57	1917.4341459852
31	59	58	1931.3353003571
31	60	59	1945.2338942112
31	61	60	1959.1547391778
31	62	61	1973.0493854005
31	63	62	1986.9358909866
31	64	63	2000.8296486354
31	65	64	2014.703963697
31	66	65	2028.5942516169
31	67	66	2042.495602442
31	68	67	2056.3851745035
31	69	68	2070.3130613565
31	70	69	2084.1962146899
31	71	70	2098.0349792624
31	72	71	2110.155092163
31	73	72	2117.83540574
31	74	73	2120.8566767089
31	76	74	2120.3866711082
31	77	75	2119.9165710621
31	78	76	2119.446890506
31	79	77	2118.9771798709
31	80	78	2118.5065954803
31	81	79	2118.037114202
32	21	20	4.067372106413
32	22	21	5.8844240154271
32	23	22	7.537838140674
32	24	23	9.3614518548586
32	25	24	11.131813735405
32	26	25	13.055222753974
32	27	26	13.056929057404
32	28	27	13.088935566079
32	29	28	13.097759776963
32	30	29	13.007092833967
32	31	30	13.085117228884
32	32	31	13.080600649864
32	33	32	13.117051406159
32	34	33	13.130705420296
32	35	34	13.076950958216
32	36	35	13.090002827352
32	37	36	13.033971088322
32	38	37	13.019674586834
32	39	38	10.823429693182
32	40	39	6.3234296931819
32	41	40	8.6041157709741
32	42	41	10.729878066311
32	43	42	12.674055236164
32	44	43	13.986021694564
32	45	44	13.889535133126
32	46	45	13.959654321973
32	47	46	13.972242008243
32	48	47	13.884239303807
32	49	48	13.920426942427
32	50	49	13.887057281358
32	51	50	13.924890077722
32	52	51	13.888422596853
32	53	52	13.973124842362
32	54	53	13.979389482583
32	55	54	13.907495470522
32	56	55	13.981073234761
32	57	56	13.968595914519
32	58	57	13.977168370693
32	59	58	13.911225638806
32	60	59	13.97115611963
32	61	60	13.928424248584
32	62	61	13.93642065672
32	63	62	13.982039187397
32	64	63	13.971991834943
32	65	64	13.958216204653
32	66	65	13.965484043353
32	67	66	13.949256250246
32	68	67	13.91837227551
32	69	68	13.892609307456
32	70	69	13.98260364667
32	71	70	13.9460709692
32	72	71	13.96612499878
32	73	72	13.92864668397
32	74	73	13.95173190474
32	76	74	13.918730210701
32	77	75	13.915672578188
32	78	76	13.927561233426
32	79	77	13.993053698211
32	80	78	13.911409898638
32	81	79	13.903231616907
33	22	21	1.8170519090141
33	23	22	1.6534141252469
33	24	23	1.8236137141846
33	25	24	1.770361880546
33	26	25	1.9234090185692
33	27	26	0.0017063034302556
33	28	27	0.032006508675405
33	29	28	0.0088242108840486
33	30	29	-0.090666942996904
33	31	30	0.078024394917302
33	32	31	-0.0045165790198354
33	33	32	0.036450756294652
33	34	33	0.013654014137574
33	35	34	-0.053754462080542
33	36	35	0.013051869135817
33	37	36	-0.056031739029569
33	38	37	-0.014296501488424
33	39	38	-2.1962448936517
33	40	39	-4.5
33	41	40	2.2806860777922
33	42	41	2.1257622953365
33	43	42	1.9441771698534
33	44	43	1.3119664584004
33	45	44	-0.09648656143807
33	46	45	0.07011918884702
33	47	46	0.012587686269544
33	48	47	-0.088002704435493
33	49	48	0.036187638619449
33	50	49	-0.03336966106901
33	51	50	0.037832796364091
33	52	51	-0.036467480869032
33	53	52	0.084702245509252
33	54	53	0.0062646402209054
33	55	54	-0.071894012060946
33	56	55	0.073577764239161
33	57	56	-0.012477320241741
33	58	57	0.0085724561731322
33	59	58	-0.065942731886171
33	60	59	0.059930480823388
33	61	60	-0.042731871046126
33	62	61	0.0079964081360959
33	63	62	0.045618530677165
33	64	63	-0.010047352453695
33	65	64	-0.013775630290619
33	66	65	0.0072678387002085
33	67	66	-0.016227793106809
33	68	67	-0.030883974735625
33	69	68	-0.025762968054043
33	70	69	0.089994339214172
33	71	70	-0.036532677470239
33	72	71	0.020054029580205
33	73	72	-0.037478314810432
33	74	73	0.023085220770444
33	76	74	-0.033001694038976
33	77	75	-0.0030576325138085
33	78	76	0.011888655237852
33	79	77	0.06549246478593
33	80	78	-0.081643799573648
33	81	79	-0.0081782817305065
34	22	21	3.9895326670072
34	23	22	4.516813990543
34	24	23	5.7516577127992
34	25	24	6.5238969694044
34	26	25	7.9969762628647
34	27	26	1.9508699439778
34	28	27	2.049523008974
34	29	28	1.9772596869179
34	30	29	1.656536423546
34	31	30	2.1942461350964
34	32	31	1.933524872338
34	33	32	2.0664831725728
34	34	33	1.9957732435436
34	35	34	1.7780043555849
34	36	35	1.9898373780777
34	37	36	1.767304226999
34	38	37	1.8970896503876
34	39	38	0.973
34	40	39	0.973
34	41	40	6.3131172663211
34	42	41	7.2387381048755
34	43	42	7.8478531352875
34	44	43	6.4595699218881
34	45	44	1.704588734769
34	46	45	2.2706165053704
34	47	46	2.0783904543616
34	48	47	1.7325612239294
34	49	48	2.152114369954
34	50	49	1.9156327972978
34	51	50	2.1581293389031
34	52	51	1.9053919146671
34	53	52	2.321330931143
34	54	53	2.0578412833151
34	55	54	1.7884260015813
34	56	55	2.284823692563
34	57	56	1.993626660217
34	58	57	2.0653843819253
34	59	58	1.8086936113147
34	60	59	2.2376815222912
34	61	60	1.8880865495793
34	62	61	2.0592000420201
34	63	62	2.1907263189022
34	64	63	2.0021462571644
34	65	64	1.9882288612758
34	66	65	2.0597735821873
34	67	66	1.9790992877003
34	68	67	1.9269068362018
34	69	68	1.9416209410549
34	70	69	2.3403282689627
34	71	70	1.9105415782959
34	72	71	2.1028764937507
34	73	72	1.9057421063225
34	74	73	2.1115273522428
34	76	74	1.9198369486681
34	77	75	2.0199723520892
34	78	76	2.0713435130223
34	79	77	2.2589973676074
34	80	78	1.7560692728706
34	81	79	2.0015566521536
35	23	22	2414.8618358603
35	24	23	2414.8618358603
35	25	24	2411.8580234927
35	26	25	2407.0972548373
35	27	26	2401.9344958061
35	28	27	2395.4312230857
35	29	28	2388.0166858443
35	30	29	2380.605373892
35	31	30	2373.202286104
35	32	31	2365.7949478778
35	33	32	2358.3664403009
35	34	33	2350.9513089663
35	35	34	2343.5424025471
35	36	35	2336.9830596809
35	37	36	2334.0494864163
35	38	37	2337.4780572354
35	39	38	2345.6647225083
35	40	39	2353.49462478
35	41	40	2361.4060118824
35	42	41	2371.8368479757
35	43	42	2382.2867935618
35	44	43	2392.799581342
35	45	44	2403.2963759961
35	46	45	2413.8083810874
35	47	46	2422.2358128987
35	48	47	2429.714270673
35	49	48	2431.8026632929
35	50	49	2433.5620221659
35	51	50	2435.466607752
35	52	51	2437.3689128296
35	53	52	2438.6282839838
35	54	53	2439.4000144538
35	55	54	2440.3203180684
35	56	55	2441.2391912382
35	57	56	2442.1587569923
35	58	57	2443.0791810955
35	59	58	2443.9995532772
35	60	59	2444.9190472406
35	61	60	2445.8381393547
35	62	61	2446.7576322547
35	63	62	2447.6773743792
35	64	63	2448.5971823439
35	65	64	2449.5175153755
35	66	65	2450.4365012295
35	67	66	2449.8932432871
35	68	67	2448.8816068704
35	69	68	2447.8697884678
35	70	69	2446.8570419201
35	71	70	2445.8451586224
35	72	71	2444.8327473403
35	73	72	2443.8201612772
35	74	73	2442.805366718
35	76	74	2441.7909601909
35	77	75	2440.7791965613
35	78	76	2439.8806968499
35	79	77	2439.023641706
35	80	78	2438.5434991483
35	81	79	2435.2921860457
36	23	22	1578.4561478766
36	24	23	1578.4561478766
36	25	24	1579.559132101
36	26	25	1581.6189543447
36	27	26	1586.8481179941
36	28	27	1593.4350373344
36	29	28	1600.9449420925
36	30	29	1608.4515800783
36	31	30	1615.9498881185
36	32	31	1623.4525012663
36	33	32	1630.9765560506
36	34	33	1638.4870625446
36	35	34	1645.9912640564
36	36	35	1654.25662788
36	37	36	1664.1319735982
36	38	37	1673.4079156369
36	39	38	1680.0610618973
36	40	39	1687.1222638832
36	41	40	1694.0342444284
36	42	41	1695.5933249947
36	43	42	1696.9973441865
36	44	43	1698.0947219171
36	45	44	1699.0872639483
36	46	45	1700.0812442275
36	47	46	1700.8749691211
36	48	47	1702.2958563035
36	49	48	1711.6851105671
36	50	49	1723.2625865405
36	51	50	1735.7957281312
36	52	51	1748.3138628155
36	53	52	1760.9212893676
36	54	53	1773.5929945614
36	55	54	1786.2489840593
36	56	55	1798.885302119
36	57	56	1811.5311445808
36	58	57	1824.1887910338
36	59	58	1836.8457234632
36	60	59	1849.4905786617
36	61	60	1862.1299076378
36	62	61	1874.7747482117
36	63	62	1887.4230161132
36	64	63	1900.0721894475
36	65	64	1912.7285834868
36	66	65	1925.3664511768
36	67	66	1938.0101199569
36	68	67	1950.6366567686
36	69	68	1963.2654650006
36	70	69	1975.9058576887
36	71	70	1988.5354758957
36	72	71	2001.1716840323
36	73	72	2013.8100736653
36	74	73	2026.4760281984
36	76	74	2039.1371395849
36	77	75	2051.7652641796
36	78	76	2064.4000339042
36	79	77	2077.0627882024
36	80	78	2090.0214020396
36	81	79	2103.3818443669
37	24	23	4.0608742667126
37	25	24	6.2191981008855
37	26	25	8.1895616532882
37	27	26	10.213926542587
37	28	27	10.523003529425
37	29	28	10.602859260213
37	30	29	10.510912516553
37	31	30	10.494186494547
37	32	31	10.565519105854
37	33	32	10.58602443555
37	34	33	10.494087178512
37	35	34	10.577600009249
37	36	35	10.519033046608
37	37	36	10.612200059314
37	38	37	10.544839065542
37	39	38	10.508161969018
37	40	39	10.556259912898
37	41	40	10.601337815587
37	42	41	10.559272445299
37	43	42	10.586483303449
37	44	43	10.501477940398
37	45	44	10.539310473582
37	46	45	6.4446944556538
37	47	46	8.7002403630864
37	48	47	10.689839934287
37	49	48	12.630848485116
37	50	49	12.615105167319
37	51	50	12.618962466886
37	52	51	12.652118238249
37	53	52	12.72975650804
37	54	53	12.64519745791
37	55	54	12.616691098792
37	56	55	12.640088570317
37	57	56	12.636286280268
37	58	57	12.723589814712
37	59	58	12.697615581731
37	60	59	12.665849226079
37	61	60	12.642996864928
37	62	61	12.704235324635
37	63	62	12.644971724585
37	64	63	12.700921515561
37	65	64	12.685687469725
37	66	65	12.646131060579
37	67	66	12.684138629578
37	68	67	12.692734957201
37	69	68	12.672671702182
37	70	69	12.669831698196
37	71	70	12.680693090606
37	72	71	12.730371075567
37	73	72	12.716350049869
37	74	73	12.701947715195
37	76	74	12.681971519433
37	77	75	12.674966320173
37	78	76	12.672023865449
37	79	77	13.691221291501
37	80	78	13.942978770225
37	81	79	13.993188831017
38	25	24	2.1583238341729
38	26	25	1.9703635524027
38	27	26	2.024364889299
38	28	27	0.30907698683803
38	29	28	0.079855730787386
38	30	29	-0.091946743659211
38	31	30	-0.016726022006477
38	32	31	0.07133261130657
38	33	32	0.020505329696462
38	34	33	-0.091937257037499
38	35	34	0.083512830736581
38	36	35	-0.058566962641198
38	37	36	0.093167012706399
38	38	37	-0.067360993772745
38	39	38	-0.036677096523345
38	40	39	0.04809794388013
38	41	40	0.045077902688645
38	42	41	-0.042065370287746
38	43	42	0.027210858149919
38	44	43	-0.085005363051312
38	45	44	0.037832533183973
38	46	45	-4.094616017928
38	47	46	2.2555459074327
38	48	47	1.9895995712001
38	49	48	1.9410085508299
38	50	49	-0.015743317797314
38	51	50	0.0038572995667341
38	52	51	0.033155771363527
38	53	52	0.077638269790913
38	54	53	-0.084559050130192
38	55	54	-0.028506359118037
38	56	55	0.023397471525241
38	57	56	-0.0038022900489167
38	58	57	0.087303534443491
38	59	58	-0.025974232980516
38	60	59	-0.031766355652362
38	61	60	-0.022852361151017
38	62	61	0.061238459707239
38	63	62	-0.059263600050473
38	64	63	0.05594979097601
38	65	64	-0.015234045835676
38	66	65	-0.039556409146172
38	67	66	0.038007568998728
38	68	67	0.0085963276238186
38	69	68	-0.020063255019485
38	70	69	-0.0028400039859129
38	71	70	0.010861392410007
38	72	71	0.049677984961308
38	73	72	-0.014021025698167
38	74	73	-0.014402334673795
38	76	74	-0.019976195762865
38	77	75	-0.0070051992591473
38	78	76	-0.0029424547241064
38	79	77	1.0191974260518
38	80	78	0.25175747872416
38	81	79	0.050210060791578
39	25	24	4.6671892251845
39	26	25	5.4446806686694
39	27	26	6.6842432597297
39	28	27	2.5091069810759
39	29	28	1.9356501905785
39	30	29	1.4914072447789
39	31	30	1.6807003634974
39	32	31	1.9102686739091
39	33	32	1.7825737813274
39	34	33	1.4904780866968
39	35	34	1.9424831485193
39	36	35	1.5764885080758
39	37	36	1.9706159725933
39	38	37	1.5558141111588
39	39	38	1.63121987375
39	40	39	1.8502662787917
39	41	40	1.8466454678963
39	42	41	1.6210933661485
39	43	42	1.7997205359949
39	44	43	1.5084402118965
39	45	44	1.8226556891415
39	46	45	0.973
39	47	46	6.3198701690991
39	48	47	6.8642326410246
39	49	48	7.8139621935621
39	50	49	1.8561470952188
39	51	50	1.9160975183039
39	52	51	2.0085305540771
39	53	52	2.152828218421
39	54	53	1.649099490604
39	55	54	1.8174799463478
39	56	55	1.97759462343
39	57	56	1.894388793348
39	58	57	2.1817759708081
39	59	58	1.8321693321065
39	60	59	1.8117396402197
39	61	60	1.8369586297842
39	62	61	2.0997640794233
39	63	62	1.7261695188173
39	64	63	2.083218926278
39	65	64	1.8639715535512
39	66	65	1.7863222174102
39	67	66	2.0265865457807
39	68	67	1.9374960334543
39	69	68	1.8480626136721
39	70	69	1.9004029534262
39	71	70	1.9432751927529
39	72	71	2.0671142681128
39	73	72	1.8704264306793
39	74	73	1.8679683739416
39	76	74	1.8491465666599
39	77	75	1.8881523670196
39	78	76	1.9002918633244
39	79	77	5.3704747439834
39	80	78	2.8789822696244
39	81	79	2.2074756072082
40	26	25	2414.8775742606
40	27	26	2414.8775742606
40	28	27	2411.9038439742
40	29	28	2407.2283499469
40	30	29	2402.3680244937
40	31	30	2396.1771332737
40	32	31	2388.586097418
40	33	32	2379.6363416617
40	34	33	2369.9128532254
40	35	34	2360.561115353
40	36	35	2351.6667062229
40	37	36	2343.1268905039
40	38	37	2335.8776681137
40	39	38	2333.8304737648
40	40	39	2340.0987089881
40	41	40	2348.5355565373
40	42	41	2356.6540667722
40	43	42	2365.8866927988
40	44	43	2376.5349063952
40	45	44	2387.1467708275
40	46	45	2397.7892078888
40	47	46	2407.2230499006
40	48	47	2415.4908685238
40	49	48	2423.1920644363
40	50	49	2430.2968966688
40	51	50	2431.9423992048
40	52	51	2433.6802751749
40	53	52	2435.7101382205
40	54	53	2437.7829187678
40	55	54	2438.848284001
40	56	55	2439.7422675698
40	57	56	2440.7075966817
40	58	57	2441.6627886776
40	59	58	2442.609752079
40	60	59	2443.5498652956
40	61	60	2444.4853087072
40	62	61	2445.416909219
40	63	62	2446.3440388695
40	64	63	2447.2724983154
40	65	64	2448.1974758046
40	66	65	2449.1220126227
40	67	66	2450.0453900459
40	68	67	2450.3239084678
40	69	68	2449.3091887704
40	70	69	2448.2932060114
40	71	70	2447.2786556289
40	72	71	2446.2651167461
40	73	72	2445.2531620302
40	74	73	2444.238839335
40	76	74	2443.225096531
40	77	75	2442.2117046937
40	78	76	2441.2002946938
40	79	77	2440.2343561946
40	80	78	2439.3677639073
40	81	79	2438.5832206493
41	26	25	1578.4503688179
41	27	26	1578.4503688179
41	28	27	1579.5423070593
41	29	28	1581.4861730598
41	30	29	1586.4090131586
41	31	30	1592.6795330746
41	32	31	1600.3682066137
41	33	32	1609.4330762289
41	34	33	1619.2816304546
41	35	34	1628.7536525736
41	36	35	1637.7624636805
41	37	36	1646.4121205127
41	38	37	1655.6717011314
41	39	38	1666.8316216664
41	40	39	1675.5242495267
41	41	40	1682.6500519309
41	42	41	1689.9715278065
41	43	42	1694.7039647149
41	44	43	1696.2955363542
41	45	44	1697.5602109339
41	46	45	1698.5665244274
41	47	46	1699.4585571876
41	48	47	1700.2403346505
41	49	48	1700.9303422617
41	50	49	1703.0493022837
41	51	50	1712.6046439204
41	52	51	1724.0407514693
41	53	52	1737.3982824422
41	54	53	1751.1714570243
41	55	54	1764.845620892
41	56	55	1778.2996498132
41	57	56	1791.5748286871
41	58	57	1804.7106022276
[...]
39	82	80	1.6928785256858
39	83	81	2.2787110804607
39	84	82	2.0611109639882
39	85	83	1.8190353209298
39	86	84	2.2273003331691
40	82	80	2437.0416075444
40	83	81	2430.0932642772
40	84	82	2418.5180045216
40	85	83	2405.1275079489
40	86	84	2391.2751987326
41	82	80	2099.2294800151
41	83	81	2110.9692816101
41	84	82	2118.20303874
41	85	83	2120.8294082657
41	86	84	2120.3615346532
42	82	80	13.843599163007
42	83	81	13.861340929755
42	84	82	13.851615582127
42	85	83	13.761023894958
42	86	84	13.817607633197
43	82	80	0.13434243181796
43	83	81	0.017741766747406
43	84	82	-0.0097253476280645
43	85	83	-0.09059168716897
43	86	84	0.056583738239683
44	82	80	2.4711095706322
44	83	81	2.0839691389809
44	84	82	1.9912491093027
44	85	83	1.7141199844098
44	86	84	2.2086965265971
45	82	80	2438.7621909911
45	83	81	2437.9312684502
45	84	82	2433.0718497717
45	85	83	2423.0260501773
45	86	84	2410.1200629403
46	82	80	2080.9256506879
46	83	81	2094.5142772133
46	84	82	2107.0752883619
46	85	83	2116.1491530789
46	86	84	2120.7816550871
47	82	80	13.689614817331
47	83	81	13.666349205657
47	84	82	13.744196627746
47	85	83	13.780441012108
47	86	84	13.785590597852
48	82	80	0.0057772370090721
48	83	81	-0.023265611673709
48	84	82	0.077847422089501
48	85	83	0.036244384361577
48	86	84	0.0051495857441335
49	82	80	2.0264461890601
49	83	81	1.9284299299377
49	84	82	2.2707231183581
49	85	83	2.1368867301561
49	86	84	2.0341441436312
50	82	80	2440.0124386182
50	83	81	2439.0974395355
50	84	82	2438.557972476
50	85	83	2435.6568950391
50	86	84	2427.2813098228
51	82	80	2062.453585471
51	83	81	2075.9724455439
51	84	82	2089.5618738867
51	85	83	2102.7751649832
51	86	84	2113.4469587384
52	82	80	13.523174830989
52	83	81	13.519355231643
52	84	82	13.669175143291
52	85	83	13.686639567919
52	86	84	13.765112586947
53	82	80	0.10171905629963
53	83	81	-0.0038195993458974
53	84	82	0.14981991164777
53	85	83	0.017464424627537
53	86	84	0.078473019028761
54	82	80	2.3223282334101
54	83	81	1.9779944991034
54	84	82	2.4988873667324
54	85	83	2.0646939849653
54	86	84	2.2752965216503
55	82	80	2442.4412402223
55	83	81	2441.329246038
55	84	82	2440.2605161637
55	85	83	2439.320498348
55	86	84	2438.5944535974
56	82	80	2031.0207999414
56	83	81	2044.899932079
56	84	82	2058.7883078894
56	85	83	2072.6768128695
56	86	84	2086.58337365
57	82	80	13.95066795297
57	83	81	13.930912399821
57	84	82	13.871482908367
57	85	83	13.961524978587
57	86	84	13.906682227219
58	82	80	0.048321839938872
58	83	81	-0.019755553149153
58	84	82	-0.059429491453338
58	85	83	0.090042070220225
58	86	84	-0.054842751368415
59	82	80	2.1962610318246
59	83	81	1.9654542912092
59	84	82	1.8270565602921
59	85	83	2.3378744653008
59	86	84	1.8455047491761
60	82	80	2446.2390309133
60	83	81	2445.126654176
60	84	82	2444.0134073331
60	85	83	2442.9024717144
60	86	84	2441.7890053543
61	82	80	1983.6194379814
61	83	81	1997.5033448767
61	84	82	2011.3981118212
61	85	83	2025.2640316831
61	86	84	2039.1615384864
62	82	80	13.890623674637
62	83	81	13.897901204783
62	84	82	13.904617237286
62	85	83	13.972597168344
62	86	84	13.963501582649
63	82	80	-0.0329837621958
63	83	81	0.007277530145366
63	84	82	0.0067160325031725
63	85	83	0.067979931058362
63	86	84	-0.0090955856954675
64	82	80	1.9172586675384
64	83	81	2.0527921824156
64	84	82	2.051606036166
64	85	83	2.2649554996047
64	86	84	2.0045010773
65	82	80	2448.996671984
65	83	81	2447.8847979077
65	84	82	2446.771766574
65	85	83	2445.659690691
65	86	84	2444.5488301227
66	82	80	1949.2004946573
66	83	81	1963.0781276906
66	84	82	1976.9702047985
66	85	83	1990.8503566403
66	86	84	2004.715339778
67	82	80	13.884971959784
67	83	81	13.893829055894
67	84	82	13.939647506392
67	85	83	13.877113789706
67	86	84	13.998249822583
68	82	80	-0.089585307338275
68	83	81	0.0088570961100043
68	84	82	0.045818450497464
68	85	83	-0.062533716685138
68	86	84	0.12113603287609
69	82	80	1.7273243425824
69	83	81	2.0576597229418
69	84	82	2.1865971053601
69	85	83	1.8171662179402
69	86	84	2.4473300431635
70	82	80	2449.6237779396
70	83	81	2450.6330954138
70	84	82	2449.5770563361
70	85	83	2448.4648581329
70	86	84	2447.354075986
71	82	80	1914.1899032863
71	83	81	1928.0700088842
71	84	82	1941.956543901
71	85	83	1955.838222459
71	86	84	1969.7022267934
72	82	80	13.944140594732
72	83	81	13.888762612641
72	84	82	13.937677348352
72	85	83	13.878660943171
72	86	84	13.920798825256
73	82	80	0.064389187337364
73	83	81	-0.055377982091159
73	84	82	0.048914735710715
73	85	83	-0.059016405181028
73	86	84	0.042137882085516
74	82	80	2.2495131677948
74	83	81	1.8421264307842
74	84	82	2.1967745899126
74	85	83	1.8290646691817
74	86	84	2.1721180709174
75	82	80	2446.5768124103
75	83	81	2447.5863594747
75	84	82	2448.5953030201
75	85	83	2449.6059743093
75	86	84	2450.6169209509
76	82	80	1872.2881187815
76	83	81	1886.1713816989
76	84	82	1900.0463450383
76	85	83	1913.9450682616
76	86	84	1927.8475781251
77	82	80	13.910274895318
77	83	81	13.915951870498
77	84	82	13.879180060248
77	85	83	13.940594596141
77	86	84	13.996701665553
78	82	80	0.035748404411134
78	83	81	0.0056769751803945
78	84	82	-0.036771810250357
78	85	83	0.061414535893128
78	86	84	0.056107069412246
79	82	80	2.1495188201109
79	83	81	2.0492942499
79	84	82	1.9035155941449
79	85	83	2.2391021642177
79	86	84	2.2277700685306
80	82	80	2443.4515652342
80	83	81	2444.4629483517
80	84	82	2445.4747089943
80	85	83	2446.4853982704
80	86	84	2447.49551043
81	82	80	1829.3098072652
81	83	81	1843.2183195334
81	84	82	1857.1320235133
81	85	83	1871.030994094
81	86	84	1884.922028183
82	82	80	13.949294998078
82	83	81	13.977096706852
82	84	82	13.982823318227
82	85	83	13.88941279036
82	86	84	13.979282254104
83	82	80	0.070405883949716
83	83	81	0.027801708774641
83	84	82	0.0057266113744117
83	85	83	-0.0934105278668
83	86	84	0.089869463744108
84	82	80	2.2703464659131
84	83	81	2.1301502555146
84	84	82	2.0563850524329
84	85	83	1.7148756931338
84	86	84	2.3394953790095
85	82	80	2433.217689606
85	83	81	2435.0191372258
85	84	82	2436.8217774205
85	85	83	2438.3295362914
85	86	84	2439.0684907943
86	82	80	1720.9967032131
86	83	81	1732.851144542
86	84	82	1744.7134336196
86	85	83	1756.6193225961
86	86	84	1768.6070758933
87	82	80	11.953648177444
87	83	81	12.043799079317
87	84	82	11.988251977077
87	85	83	11.988428687377
87	86	84	12.020129311381
88	82	80	-0.047874380496795
88	83	81	0.09015090187313
88	84	82	-0.05554710224038
88	85	83	0.00017671030014732
88	86	84	0.031700624004007
89	82	80	1.7065141213223
89	83	81	2.1140458823376
89	84	82	1.6869906519225
89	85	83	1.8480017188649
89	86	84	1.9421183944745
90	82	80	2429.7306642892
90	83	81	2431.8155509136
90	84	82	2433.5861586741
90	85	83	2435.5384269704
90	86	84	2437.4579684751
91	82	80	1702.3140714327
91	83	81	1711.769917665
91	84	82	1723.421417038
91	85	83	1736.2683351068
91	86	84	1748.8998942459
92	82	80	10.600402019402
92	83	81	12.699525483857
92	84	82	12.912721348808
92	85	83	12.62707362933
92	86	84	12.514635113444
93	82	80	1.8187147873314
93	83	81	2.0991234644549
93	84	82	0.21319586495079
93	85	83	-0.28564771947791
93	86	84	-0.1124385158857
94	82	80	6.3776656414914
94	83	81	8.3363783621892
94	84	82	2.5952639192684
94	85	83	0.973
94	86	84	1.5556503718517
95	82	80	2415.880312068
95	83	81	2423.5398541616
95	84	82	2430.5690994656
95	85	83	2432.1724686521
95	86	84	2434.0497161736
96	82	80	1700.2771591377
96	83	81	1700.9504815331
96	84	82	1703.8592715813
96	85	83	1714.1186178681
96	86	84	1726.4718610914
97	82	80	7.0086972943185
97	83	81	9.2307973784445
97	84	82	11.33899250808
97	85	83	13.317439644286
97	86	84	13.489648629711
98	82	80	-1.7387635858037
98	83	81	2.222100084126
98	84	82	2.1081951296353
98	85	83	1.9784471362061
98	86	84	0.17220898542539
99	82	80	0.973
99	83	81	6.5712859282952
99	84	82	7.5527297407881
99	85	83	8.3204552480567
99	86	84	2.547357236701
100	82	80	2399.8656969293
100	83	81	2408.6379168016
100	84	82	2417.2194066041
100	85	83	2424.4975534223
100	86	84	2430.7423935193
101	82	80	1698.7628703322
101	83	81	1699.5923423013
101	84	82	1700.4037794685
101	85	83	1701.0059385058
101	86	84	1704.7079963367
102	82	80	7.9931687686442
102	83	81	9.1878188845829
102	84	82	6.9895311099889
102	85	83	9.094548749743
102	86	84	11.030252739443
103	82	80	-1.4929430295375
103	83	81	1.1946501159387
103	84	82	-2.198287774594
103	85	83	2.1050176397541
103	86	84	1.9357039897004
104	82	80	0.973
104	83	81	4.2701405197745
104	84	82	0.973
104	85	83	6.2319587631773
104	86	84	6.9117372759842
105	82	80	2358.6080084353
105	83	81	2369.8655446537
105	84	82	2381.9576193939
105	85	83	2394.1195587356
105	86	84	2406.3064077778
106	82	80	1691.7336413395
106	83	81	1695.2986774063
106	84	82	1696.9581651138
106	85	83	1698.2195345946
106	86	84	1699.3718825541
107	82	80	12.24442244583
107	83	81	12.176833894662
107	84	82	12.227113323346
107	85	83	12.233818625032
107	86	84	9.2681343349676
108	82	80	0.028010710261297
108	83	81	-0.067588551167864
108	84	82	0.050279428684153
108	85	83	0.0067053016857237
108	86	84	-2.965684290064
109	82	80	1.9529129732982
109	83	81	1.6658561967065
109	84	82	2.0168629541678
109	85	83	1.8890738486753
109	86	84	0.973
110	82	80	2339.6713423185
110	83	81	2350.2392751323
110	84	82	2360.353480833
110	85	83	2373.2728725324
110	86	84	2386.2492387758
111	82	80	1675.1791252401
111	83	81	1684.1865080334
111	84	82	1693.3077520663
111	85	83	1695.8079653131
111	86	84	1697.4689635951
112	82	80	13.824036118681
112	83	81	13.44125427326
112	84	82	13.195892382637
112	85	83	12.988348819491
112	86	84	11.051899495583
113	82	80	-0.056341353117922
113	83	81	-0.38278184542026
113	84	82	-0.24536189062374
113	85	83	-0.20754356314608
113	86	84	-1.9364493239075
114	82	80	1.833214196001
114	83	81	0.973
114	84	82	1.1785376743835
114	85	83	1.289317924974
114	86	84	0.973
115	82	80	2359.7510255593
115	83	81	2352.5099029642
115	84	82	2345.2446918846
115	85	83	2338.5956882177
115	86	84	2334.510232391
116	82	80	1629.5741619319
116	83	81	1636.9084215444
116	84	82	1644.2670794735
116	85	83	1652.19221236
116	86	84	1661.3571825419
117	82	80	10.299517820359
117	83	81	10.312693880121
117	84	82	10.402105987973
117	85	83	10.374811264868
117	86	84	10.33296438281
118	82	80	-0.075924052584451
118	83	81	0.013176059762481
118	84	82	0.089412107851823
118	85	83	-0.027294723105152
118	86	84	-0.041846882058307
119	82	80	1.5193220070009
119	83	81	1.7415501691917
119	84	82	1.9399222969325
119	85	83	1.645395562495
119	86	84	1.6061704388764
120	82	80	2379.616833211
120	83	81	2370.4989479294
120	84	82	2361.4831209757
120	85	83	2352.8745644127
120	86	84	2344.584524505
121	82	80	1609.4528356018
121	83	81	1618.6879972629
121	84	82	1627.8197878981
121	85	83	1636.5390697354
121	86	84	1644.9357380811
122	82	80	12.998777343629
122	83	81	12.605227840698
122	84	82	12.014084930552
122	85	83	11.584700541917
122	86	84	11.358179795498
123	82	80	0.045321208788081
123	83	81	-0.39354950293097
123	84	82	-0.59114291014626
123	85	83	-0.42938438863522
123	86	84	-0.22652074641895
124	82	80	2.0819381521331
124	83	81	0.973
124	84	82	0.973
124	85	83	0.973
124	86	84	1.1732211916124
125	82	80	2402.128447905
125	83	81	2395.6944575682
125	84	82	2387.9337748789
125	85	83	2378.7673655167
125	86	84	2368.9823548129
126	82	80	1586.6516712382
126	83	81	1593.1684170682
126	84	82	1601.0289194789
126	85	83	1610.3132293485
126	86	84	1620.224097156
127	82	80	10.046968652414
127	83	81	11.926067483762
127	84	82	13.892129573808
127	85	83	13.936045407304
127	86	84	13.893183273086
128	82	80	1.9431141708884
128	83	81	1.8790988313477
128	84	82	1.9660620900462
128	85	83	0.043915833495557
128	86	84	-0.042862134217286
129	82	80	6.3932525708783
129	83	81	7.2428843983977
129	84	82	8.6102118406059
129	85	83	2.1797995320176
129	86	84	1.884423361701
130	82	80	2414.8461739381
130	83	81	2411.9468780267
130	84	82	2407.2557718946
130	85	83	2402.3132644872
130	86	84	2396.0984851476
131	82	80	1578.4618988531
131	83	81	1579.5265051797
131	84	82	1581.4583984045
131	85	83	1586.4644775018
131	86	84	1592.7591927908
132	82	80	4.0267229073465
132	83	81	5.9477333564631
132	84	82	7.8212407105433
132	85	83	9.6026732088782
132	86	84	11.466286668062
133	83	81	1.9210104491166
133	84	82	1.8735073540802
133	85	83	1.7814324983349
133	86	84	1.8636134591838
134	83	81	4.1699391246736
134	84	82	5.0629039791787
134	85	83	5.7777020757503
134	86	84	6.9522613836103
135	84	82	2414.8840517174
135	85	83	2414.8840517174
135	86	84	2412.0108083608
136	84	82	1578.4479903299
136	85	83	1578.4479903299
136	86	84	1579.5030302955
137	85	83	3.8169569386458
137	86	84	5.8201201644269
138	86	84	2.0031632257812
139	86	84	4.2187098686395
vector 140 RSUExampleScenario.node[28].veinsmobility posx ETV
vector 141 RSUExampleScenario.node[28].veinsmobility posy ETV
vector 142 RSUExampleScenario.node[28].veinsmobility speed ETV
0	203	85	2140.3209259163
0	204	86	2140.3209259163
1	203	85	2075.9235266512
1	204	86	2075.9235266512
2	203	85	0
2	204	86	0
3	203	85	0
3	204	86	0
4	203	85	0.973
4	204	86	0.973
5	203	85	2144.6340603527
5	204	86	2144.6318573126
6	203	85	2078.4626007918
6	204	86	2078.4613038972
7	203	85	0.0015233755870791
7	204	86	0.00054909975708676
8	203	85	-0.002891262698174
8	204	86	-0.00097427582999232
9	203	85	1.1100724261592
9	204	86	1.1100263596434
10	203	85	2149.0206824628
10	204	86	2148.970440554
11	203	85	2081.0449359659
11	204	86	2081.0153593477
12	203	85	0.035636258771308
12	204	86	0.013565543513394
13	203	85	-0.061150898486345
13	204	86	-0.022070715257914
14	203	85	1.1111939126964
14	204	86	1.1105822463489
15	203	85	2154.3186951779
15	204	86	2153.678918281
16	203	85	2084.1637923988
16	204	86	2083.7871658411
17	203	85	0.49973008570276
17	204	86	0.19564597656583
18	203	85	-0.61059198427652
18	204	86	-0.30408410913693
19	203	85	0.973
19	204	86	0.973
20	203	85	2174.0416856013
20	204	86	2167.2818817057
21	203	85	2095.774405445
21	204	86	2091.7950156257
22	203	85	6.6715766769864
22	204	86	4.2657116295168
23	203	85	-2.6476483217528
23	204	86	-2.4058650474696
24	203	85	0.973
24	204	86	0.973
25	203	85	2196.4179653845
25	204	86	2185.8774806916
26	203	85	2104.4085110119
26	204	86	2100.8336693775
27	203	85	10.100515241293
27	204	86	7.8193531052903
28	203	85	-2.3275640405747
28	204	86	-2.2811621360025
29	203	85	0.973
29	204	86	0.973
30	203	85	2238.9878991076
30	204	86	2225.1997955049
31	203	85	2114.3156075384
31	204	86	2112.3603478782
32	203	85	13.92355159549
32	204	86	13.902143854494
33	203	85	-0.061135133558418
33	204	86	-0.021407740996221
34	203	85	1.8258862429169
34	204	86	1.957123854207
35	203	85	2358.4251516565
35	204	86	2344.5051702537
36	203	85	2119.2519961698
36	204	86	2118.781836872
37	203	85	13.877848449303
37	204	86	13.884422138168
38	203	85	-0.089189878560138
38	204	86	0.0065736888651742
39	203	85	1.7280766244375
39	204	86	2.0490423292019
40	203	85	2377.4121053866
40	204	86	2363.5111341994
41	203	85	2119.8932967987
41	204	86	2119.4237795873
42	203	85	13.882641213637
42	204	86	13.898743290208
43	203	85	0.065033580439838
43	204	86	0.016102076570496
44	203	85	2.2444486868931
44	204	86	2.0824380360025
45	203	85	2396.3489590398
45	204	86	2382.4990709531
46	203	85	2120.5329052554
46	204	86	2120.0651134187
47	203	85	13.949861143256
47	204	86	13.864638695949
48	203	85	0.16427054540412
48	204	86	-0.085222447307585
49	203	85	2.5859790716519
49	204	86	1.74027561341
50	203	85	2415.0786441362
50	204	86	2401.4396089457
51	203	85	2119.6565313144
51	204	86	2120.7048463169
52	203	85	13.725270599043
52	204	86	13.908932585561
53	203	85	-0.039841987904406
53	204	86	0.18366198651802
54	203	85	1.8791737221509
54	204	86	2.6451846586298
55	203	85	2436.8283157912
55	204	86	2429.2793811021
56	203	85	2100.3599263066
56	204	86	2111.970290279
57	203	85	13.90023799682
57	204	86	13.939307733322
58	203	85	-0.0064442303986283
58	204	86	0.039069736502134
59	203	85	2.0070668031514
59	204	86	2.1638872173317
60	203	85	2440.6747318606
60	204	86	2439.7080368674
61	203	85	2053.069119365
61	204	86	2066.9510377115
62	203	85	13.967863003141
62	204	86	13.912061038727
63	203	85	0.004361420492641
63	204	86	-0.05580196441384
64	203	85	2.0502373730085
64	204	86	1.8427654748308
65	203	85	2443.4338147376
65	204	86	2442.3210102787
66	203	85	2018.6321804263
66	204	86	2032.5214258423
67	203	85	13.870493044811
67	204	86	13.941491934406
68	203	85	-0.12775677777128
68	204	86	0.070998889594339
69	203	85	1.5985665157532
69	204	86	2.2714095316381
70	203	85	2446.2410965591
70	204	86	2445.1280413253
71	203	85	1983.5936560379
71	204	86	1997.4860314513
72	203	85	13.953361819317
72	204	86	13.999124200887
73	203	85	0.032562994060573
73	204	86	0.045762381569947
74	203	85	2.1435744620146
74	204	86	2.1931504452676
75	203	85	2449.5924987682
75	204	86	2448.4793523657
76	203	85	1941.7638022834
76	204	86	1955.6573156016
77	203	85	13.938698996529
77	204	86	13.91362883423
78	203	85	-0.058002669024281
78	204	86	-0.025070162299089
79	203	85	1.8377311487798
79	204	86	1.9459535288878
80	203	85	2448.5054530778
80	204	86	2449.5149355424
81	203	85	1898.8107311521
81	204	86	1912.693105693
82	203	85	13.950202764298
82	204	86	13.898379357262
83	203	85	-0.029079489805735
83	204	86	-0.05182340703672
84	203	85	1.9359849010146
84	204	86	1.8548825370885
85	203	85	2439.9067754077
85	204	86	2440.7783810569
86	203	85	1780.5619569877
86	204	86	1792.5482534301
87	203	85	12.0609251697
87	204	86	12.009394141124
88	203	85	0.040795858318452
88	204	86	-0.051531028575264
89	203	85	1.9724741084764
89	204	86	1.700194669643
90	203	85	2438.659270553
90	204	86	2439.4221179511
91	203	85	1761.4374721609
91	204	86	1773.8969612364
92	203	85	12.458752082267
92	204	86	12.299707882634
93	203	85	-0.055883031177821
93	204	86	-0.1590441996325
94	203	85	1.7218653335713
94	204	86	1.4037869457269
95	203	85	2436.1031465097
95	204	86	2438.008588172
96	203	85	1739.9844768215
96	204	86	1753.2246061144
97	203	85	13.24004543179
97	204	86	13.024246025115
98	203	85	-0.24960319792125
98	204	86	-0.21579940667525
99	203	85	1.1666612562408
99	204	86	1.2650232158866
100	203	85	2432.266259757
100	204	86	2434.0765236972
101	203	85	1714.7358110286
101	204	86	1726.6482682284
102	203	85	12.881577137495
102	204	86	13.968358664801
103	203	85	1.8513243980519
103	204	86	1.086781527306
104	203	85	7.6762302958424
104	204	86	5.6941199849302
105	203	85	2417.349401294
105	204	86	2424.5785808832
106	203	85	1700.4160713349
106	204	86	1701.0106305191
107	203	85	6.951859368236
107	204	86	9.2314506183111
108	203	85	-2.3162749667316
108	204	86	2.279591250075
109	203	85	0.973
109	204	86	6.6995878675228
110	203	85	2398.4646979315
110	204	86	2407.8223555434
111	203	85	1698.6303965217
111	204	86	1699.5152255381
112	203	85	8.5596046509373
112	204	86	9.4337142466086
113	203	85	-2.4922948446457
113	204	86	0.87410959567126
114	203	85	0.973
114	204	86	3.6299494821753
115	203	85	2335.3077529006
115	204	86	2343.1748500988
116	203	85	1671.3368108161
116	204	86	1678.008418465
117	203	85	10.292473317215
117	204	86	10.402252755186
118	203	85	-0.040491065594834
118	204	86	0.1097794379713
119	203	85	1.6067951515463
119	204	86	1.9909966746953
120	203	85	2337.3469447539
120	204	86	2334.0507973665
121	203	85	1653.7907983502
121	204	86	1664.1240785467
122	203	85	11.081834647454
122	204	86	10.873275918259
123	203	85	-0.27634514804333
123	204	86	-0.20855872919588
124	203	85	0.973
124	204	86	1.2067626787784
125	203	85	2359.2122518424
125	204	86	2349.4316794267
126	203	85	1630.1198654827
126	204	86	1640.0262379153
127	203	85	13.889124961388
127	204	86	13.833042053432
128	203	85	-0.0040583116980262
128	204	86	-0.056082907956462
129	203	85	2.0139397067959
129	204	86	1.8348652346028
130	203	85	2388.637281624
130	204	86	2379.8467096724
131	203	85	1600.3163640648
131	204	86	1609.2200024156
132	203	85	13.286947636499
132	204	86	13.562368140693
133	203	85	1.8206609684369
133	204	86	0.27542050419428
134	203	85	7.7976945860273
134	204	86	2.8949203803963
135	203	85	2407.4277382374
135	204	86	2402.5740833235
136	203	85	1581.2842201898
136	204	86	1586.2003039522
137	203	85	7.6568561983863
137	204	86	9.4728654203107
138	203	85	1.8367360339593
138	204	86	1.8160092219245
139	203	85	4.910169108938
139	204	86	5.791375069684
140	203	85	2414.8736667775
140	204	86	2414.8736667775
141	203	85	1578.4518036256
141	204	86	1578.4518036256
142	204	86	4.0343364698305
