version 2
run WithChannelSwitching-0-20200218-08:50:02-19282
attr configname WithChannelSwitching
attr datetime 20200218-08:50:02
attr experiment WithChannelSwitching
attr inifile omnetpp.ini
attr iterationvars ""
attr iterationvarsf ""
attr measurement ""
attr network RSUExampleScenario
attr processid 19282
attr repetition 0
attr replication #0
attr resultdir results
attr runnumber 0
attr seedset 0
param *.**.nic.mac1609_4.useServiceChannel true
param *.node[*].appl.dataOnSch true
param *.rsu[*].appl.dataOnSch true
param *.playgroundSizeX 2500m
param *.playgroundSizeY 2500m
param *.playgroundSizeZ 50m
param *.annotations.draw true
param *.obstacles.obstacles "xmldoc(\"config.xml\", \"//AnalogueModel[@type='SimpleObstacleShadowing']/obstacles\")"
param *.manager.updateInterval 1s
param *.manager.host "\"localhost\""
param *.manager.port 9999
param *.manager.autoShutdown true
param *.manager.launchConfig "xmldoc(\"erlangen.launchd.xml\")"
param *.rsu[0].mobility.x 2000
param *.rsu[0].mobility.y 2000
param *.rsu[0].mobility.z 3
param *.rsu[*].applType "\"TraCIDemoRSU11p\""
param *.rsu[*].appl.headerLength "80 bit"
param *.rsu[*].appl.sendBeacons false
param *.rsu[*].appl.dataOnSch false
param *.rsu[*].appl.beaconInterval 1s
param *.rsu[*].appl.beaconUserPriority 7
param *.rsu[*].appl.dataUserPriority 5
param *.rsu[*].nic.phy80211p.antennaOffsetZ "0 m"
param *.connectionManager.sendDirect true
param *.connectionManager.maxInterfDist 2600m
param *.connectionManager.drawMaxIntfDist false
param *.**.nic.mac1609_4.useServiceChannel false
param *.**.nic.mac1609_4.txPower 20mW
param *.**.nic.mac1609_4.bitrate 6Mbps
param *.**.nic.phy80211p.minPowerLevel -110dBm
param *.**.nic.phy80211p.useNoiseFloor true
param *.**.nic.phy80211p.noiseFloor -98dBm
param *.**.nic.phy80211p.decider "xmldoc(\"config.xml\")"
param *.**.nic.phy80211p.analogueModels "xmldoc(\"config.xml\")"
param *.**.nic.phy80211p.usePropagationDelay true
param *.**.nic.phy80211p.antenna "xmldoc(\"antenna.xml\", \"/root/Antenna[@id='monopole']\")"
param *.node[*].nic.phy80211p.antennaOffsetY "0 m"
param *.node[*].nic.phy80211p.antennaOffsetZ "1.895 m"
param *.node[*].applType "\"TraCIDemo11p\""
param *.node[*].appl.headerLength "80 bit"
param *.node[*].appl.sendBeacons false
param *.node[*].appl.dataOnSch false
param *.node[*].appl.beaconInterval 1s
param *.node[*].veinsmobility.x 0
param *.node[*].veinsmobility.y 0
param *.node[*].veinsmobility.z 0
param *.node[*].veinsmobility.setHostSpeed false
param *.node[*0].veinsmobility.accidentCount 5
param *.node[*0].veinsmobility.accidentStart 73s
param *.node[*0].veinsmobility.accidentDuration 20s

vector 0 RSUExampleScenario.node[0].veinsmobility posx ETV
vector 1 RSUExampleScenario.node[0].veinsmobility posy ETV
vector 2 RSUExampleScenario.node[0].veinsmobility speed ETV
vector 3 RSUExampleScenario.node[0].veinsmobility acceleration ETV
vector 4 RSUExampleScenario.node[0].veinsmobility co2emission ETV
vector 5 RSUExampleScenario.node[1].veinsmobility posx ETV
vector 6 RSUExampleScenario.node[1].veinsmobility posy ETV
vector 7 RSUExampleScenario.node[1].veinsmobility speed ETV
vector 8 RSUExampleScenario.node[1].veinsmobility acceleration ETV
vector 9 RSUExampleScenario.node[1].veinsmobility co2emission ETV
vector 10 RSUExampleScenario.node[2].veinsmobility posx ETV
vector 11 RSUExampleScenario.node[2].veinsmobility posy ETV
vector 12 RSUExampleScenario.node[2].veinsmobility speed ETV
vector 13 RSUExampleScenario.node[2].veinsmobility acceleration ETV
vector 14 RSUExampleScenario.node[2].veinsmobility co2emission ETV
vector 15 RSUExampleScenario.node[3].veinsmobility posx ETV
vector 16 RSUExampleScenario.node[3].veinsmobility posy ETV
vector 17 RSUExampleScenario.node[3].veinsmobility speed ETV
vector 18 RSUExampleScenario.node[3].veinsmobility acceleration ETV
vector 19 RSUExampleScenario.node[3].veinsmobility co2emission ETV
vector 20 RSUExampleScenario.node[4].veinsmobility posx ETV
vector 21 RSUExampleScenario.node[4].veinsmobility posy ETV
vector 22 RSUExampleScenario.node[4].veinsmobility speed ETV
vector 23 RSUExampleScenario.node[4].veinsmobility acceleration ETV
vector 24 RSUExampleScenario.node[4].veinsmobility co2emission ETV
vector 25 RSUExampleScenario.node[5].veinsmobility posx ETV
vector 26 RSUExampleScenario.node[5].veinsmobility posy ETV
vector 27 RSUExampleScenario.node[5].veinsmobility speed ETV
vector 28 RSUExampleScenario.node[5].veinsmobility acceleration ETV
vector 29 RSUExampleScenario.node[5].veinsmobility co2emission ETV
vector 30 RSUExampleScenario.node[6].veinsmobility posx ETV
vector 31 RSUExampleScenario.node[6].veinsmobility posy ETV
vector 32 RSUExampleScenario.node[6].veinsmobility speed ETV
vector 33 RSUExampleScenario.node[6].veinsmobility acceleration ETV
vector 34 RSUExampleScenario.node[6].veinsmobility co2emission ETV
vector 35 RSUExampleScenario.node[7].veinsmobility posx ETV
vector 36 RSUExampleScenario.node[7].veinsmobility posy ETV
vector 37 RSUExampleScenario.node[7].veinsmobility speed ETV
vector 38 RSUExampleScenario.node[7].veinsmobility acceleration ETV
vector 39 RSUExampleScenario.node[7].veinsmobility co2emission ETV
vector 40 RSUExampleScenario.node[8].veinsmobility posx ETV
vector 41 RSUExampleScenario.node[8].veinsmobility posy ETV
vector 42 RSUExampleScenario.node[8].veinsmobility speed ETV
vector 43 RSUExampleScenario.node[8].veinsmobility acceleration ETV
vector 44 RSUExampleScenario.node[8].veinsmobility co2emission ETV
vector 45 RSUExampleScenario.node[9].veinsmobility posx ETV
vector 46 RSUExampleScenario.node[9].veinsmobility posy ETV
vector 47 RSUExampleScenario.node[9].veinsmobility speed ETV
vector 48 RSUExampleScenario.node[9].veinsmobility acceleration ETV
vector 49 RSUExampleScenario.node[9].veinsmobility co2emission ETV
vector 50 RSUExampleScenario.node[10].veinsmobility posx ETV
vector 51 RSUExampleScenario.node[10].veinsmobility posy ETV
vector 52 RSUExampleScenario.node[10].veinsmobility speed ETV
vector 53 RSUExampleScenario.node[10].veinsmobility acceleration ETV
vector 54 RSUExampleScenario.node[10].veinsmobility co2emission ETV
vector 55 RSUExampleScenario.node[11].veinsmobility posx ETV
vector 56 RSUExampleScenario.node[11].veinsmobility posy ETV
vector 57 RSUExampleScenario.node[11].veinsmobility speed ETV
vector 58 RSUExampleScenario.node[11].veinsmobility acceleration ETV
vector 59 RSUExampleScenario.node[11].veinsmobility co2emission ETV
vector 60 RSUExampleScenario.node[12].veinsmobility posx ETV
vector 61 RSUExampleScenario.node[12].veinsmobility posy ETV
vector 62 RSUExampleScenario.node[12].veinsmobility speed ETV
vector 63 RSUExampleScenario.node[12].veinsmobility acceleration ETV
vector 64 RSUExampleScenario.node[12].veinsmobility co2emission ETV
vector 65 RSUExampleScenario.node[13].veinsmobility posx ETV
vector 66 RSUExampleScenario.node[13].veinsmobility posy ETV
vector 67 RSUExampleScenario.node[13].veinsmobility speed ETV
vector 68 RSUExampleScenario.node[13].veinsmobility acceleration ETV
vector 69 RSUExampleScenario.node[13].veinsmobility co2emission ETV
vector 70 RSUExampleScenario.node[14].veinsmobility posx ETV
vector 71 RSUExampleScenario.node[14].veinsmobility posy ETV
vector 72 RSUExampleScenario.node[14].veinsmobility speed ETV
vector 73 RSUExampleScenario.node[14].veinsmobility acceleration ETV
vector 74 RSUExampleScenario.node[14].veinsmobility co2emission ETV
vector 75 RSUExampleScenario.node[15].veinsmobility posx ETV
vector 76 RSUExampleScenario.node[15].veinsmobility posy ETV
vector 77 RSUExampleScenario.node[15].veinsmobility speed ETV
vector 78 RSUExampleScenario.node[15].veinsmobility acceleration ETV
vector 79 RSUExampleScenario.node[15].veinsmobility co2emission ETV
vector 80 RSUExampleScenario.node[16].veinsmobility posx ETV
vector 81 RSUExampleScenario.node[16].veinsmobility posy ETV
vector 82 RSUExampleScenario.node[16].veinsmobility speed ETV
vector 83 RSUExampleScenario.node[16].veinsmobility acceleration ETV
vector 84 RSUExampleScenario.node[16].veinsmobility co2emission ETV
vector 85 RSUExampleScenario.node[17].veinsmobility posx ETV
vector 86 RSUExampleScenario.node[17].veinsmobility posy ETV
vector 87 RSUExampleScenario.node[17].veinsmobility speed ETV
vector 88 RSUExampleScenario.node[17].veinsmobility acceleration ETV
vector 89 RSUExampleScenario.node[17].veinsmobility co2emission ETV
vector 90 RSUExampleScenario.node[18].veinsmobility posx ETV
vector 91 RSUExampleScenario.node[18].veinsmobility posy ETV
vector 92 RSUExampleScenario.node[18].veinsmobility speed ETV
vector 93 RSUExampleScenario.node[18].veinsmobility acceleration ETV
vector 94 RSUExampleScenario.node[18].veinsmobility co2emission ETV
vector 95 RSUExampleScenario.node[19].veinsmobility posx ETV
vector 96 RSUExampleScenario.node[19].veinsmobility posy ETV
vector 97 RSUExampleScenario.node[19].veinsmobility speed ETV
vector 98 RSUExampleScenario.node[19].veinsmobility acceleration ETV
vector 99 RSUExampleScenario.node[19].veinsmobility co2emission ETV
vector 100 RSUExampleScenario.node[20].veinsmobility posx ETV
vector 101 RSUExampleScenario.node[20].veinsmobility posy ETV
vector 102 RSUExampleScenario.node[20].veinsmobility speed ETV
vector 103 RSUExampleScenario.node[20].veinsmobility acceleration ETV
vector 104 RSUExampleScenario.node[20].veinsmobility co2emission ETV
vector 105 RSUExampleScenario.node[21].veinsmobility posx ETV
vector 106 RSUExampleScenario.node[21].veinsmobility posy ETV
vector 107 RSUExampleScenario.node[21].veinsmobility speed ETV
vector 108 RSUExampleScenario.node[21].veinsmobility acceleration ETV
vector 109 RSUExampleScenario.node[21].veinsmobility co2emission ETV
vector 110 RSUExampleScenario.node[22].veinsmobility posx ETV
vector 111 RSUExampleScenario.node[22].veinsmobility posy ETV
vector 112 RSUExampleScenario.node[22].veinsmobility speed ETV
vector 113 RSUExampleScenario.node[22].veinsmobility acceleration ETV
vector 114 RSUExampleScenario.node[22].veinsmobility co2emission ETV
vector 115 RSUExampleScenario.node[23].veinsmobility posx ETV
vector 116 RSUExampleScenario.node[23].veinsmobility posy ETV
vector 117 RSUExampleScenario.node[23].veinsmobility speed ETV
vector 118 RSUExampleScenario.node[23].veinsmobility acceleration ETV
vector 119 RSUExampleScenario.node[23].veinsmobility co2emission ETV
vector 120 RSUExampleScenario.node[24].veinsmobility posx ETV
vector 121 RSUExampleScenario.node[24].veinsmobility posy ETV
vector 122 RSUExampleScenario.node[24].veinsmobility speed ETV
vector 123 RSUExampleScenario.node[24].veinsmobility acceleration ETV
vector 124 RSUExampleScenario.node[24].veinsmobility co2emission ETV
vector 125 RSUExampleScenario.node[25].veinsmobility posx ETV
vector 126 RSUExampleScenario.node[25].veinsmobility posy ETV
vector 127 RSUExampleScenario.node[25].veinsmobility speed ETV
vector 128 RSUExampleScenario.node[25].veinsmobility acceleration ETV
vector 129 RSUExampleScenario.node[25].veinsmobility co2emission ETV
vector 130 RSUExampleScenario.node[26].veinsmobility posx ETV
vector 131 RSUExampleScenario.node[26].veinsmobility posy ETV
vector 132 RSUExampleScenario.node[26].veinsmobility speed ETV
vector 133 RSUExampleScenario.node[26].veinsmobility acceleration ETV
vector 134 RSUExampleScenario.node[26].veinsmobility co2emission ETV
vector 135 RSUExampleScenario.node[27].veinsmobility posx ETV
vector 136 RSUExampleScenario.node[27].veinsmobility posy ETV
vector 137 RSUExampleScenario.node[27].veinsmobility speed ETV
vector 138 RSUExampleScenario.node[27].veinsmobility acceleration ETV
vector 139 RSUExampleScenario.node[27].veinsmobility co2emission ETV
0	21	1	2414.8476884116
0	61	2	2414.8476884116
0	102	3	2411.8243290941
0	143	4	2407.1592244543
0	203	5	2402.288200066
0	264	6	2396.1394374635
0	325	7	2388.6993875942
0	405	8	2379.889221533
0	486	9	2370.1207192459
0	567	10	2360.3141803208
0	667	11	2350.5099475634
0	768	12	2341.0010868867
0	869	13	2334.5620136983
0	989	14	2337.6803779466
0	1110	15	2348.3497968862
0	1231	16	2358.6961674725
0	1371	17	2371.6616533546
0	1512	18	2385.4706804305
0	1653	19	2399.3588350668
0	1813	20	2412.4541998667
0	1974	21	2421.4418196582
0	2135	22	2428.417609864
0	2315	23	2431.468930052
0	2496	24	2433.1513403206
0	2677	25	2435.1237040944
0	2877	26	2437.2173147583
0	3078	27	2438.6437980286
0	3279	28	2439.5074353185
0	3499	29	2440.517813261
0	3720	30	2441.5286354903
0	3941	31	2442.5392864447
0	4181	32	2443.5505626462
0	4422	33	2444.5611125134
0	4663	34	2445.5724211388
0	4923	35	2446.5834693939
0	5184	36	2447.5934051003
0	5445	37	2448.6036931522
0	5725	38	2449.6148620235
0	6006	39	2450.6248001783
0	6287	40	2449.5880553933
0	6587	41	2448.4757357414
0	6888	42	2447.3635385588
0	7189	43	2446.250303259
0	7509	44	2445.1365203297
0	7830	45	2444.0235521834
0	8151	46	2442.9111769209
0	8491	47	2441.7982721732
0	8832	48	2440.6856421625
0	9173	49	2439.7151308154
0	9533	50	2438.7725309408
0	9894	51	2437.9056889905
0	10255	52	2432.8785054281
0	10635	53	2422.5273191113
0	11016	54	2409.439604845
0	11397	55	2395.517893619
0	11797	56	2381.592286239
0	12198	57	2367.6659531716
0	12599	58	2353.7601239877
0	13019	59	2339.8337569573
0	13440	60	2325.9069679289
0	13861	61	2311.9542202253
0	14301	62	2298.0325140053
0	14742	63	2284.0857072632
0	15183	64	2270.1754193477
0	15643	65	2256.2378749268
0	16104	66	2242.3725172955
0	16565	67	2228.5568932705
0	17045	68	2214.8035730832
0	17526	69	2201.6130456962
0	18007	70	2188.4247624045
0	18507	71	2175.5107078577
0	19008	72	2163.5018647154
0	19509	73	2152.2359160049
0	20030	74	2144.5614629743
0	20551	75	2140.764952604
0	21072	76	2140.3209259163
0	21612	77	2140.3209259163
0	22153	78	2140.3209259163
0	22694	79	2140.3209259163
0	23254	80	2140.3209259163
0	23815	81	2140.3209259163
0	24376	82	2140.3209259163
0	24956	83	2140.3209259163
0	25537	84	2140.3209259163
1	21	1	1578.4613427464
1	61	2	1578.4613427464
1	102	3	1579.5715045081
1	143	4	1581.5561876604
1	203	5	1586.4898643075
1	264	6	1592.7177137369
1	325	7	1600.2534592729
1	405	8	1609.1769437566
1	486	9	1619.0710908128
1	567	10	1629.0037637418
1	667	11	1638.9341008412
1	768	12	1649.1129276818
1	869	13	1661.0453354148
1	989	14	1673.5713017788
1	1110	15	1682.4825292248
1	1231	16	1691.8131453674
1	1371	17	1695.5671389326
1	1512	18	1697.3762977775
1	1653	19	1698.7149431584
1	1813	20	1699.9531973498
1	1974	21	1700.8030368192
1	2135	22	1701.4822415169
1	2315	23	1709.488976148
1	2496	24	1720.5600911779
1	2677	25	1733.5392477075
1	2877	26	1747.3162704222
1	3078	27	1761.1584832035
1	3279	28	1775.0702432813
1	3499	29	1788.9649324082
1	3720	30	1802.8657313576
1	3941	31	1816.7641749373
1	4181	32	1830.6712168986
1	4422	33	1844.5682703312
1	4663	34	1858.4757581847
1	4923	35	1872.3796654344
1	5184	36	1886.2682729438
1	5445	37	1900.1617258992
1	5725	38	1914.0672918586
1	6006	39	1927.95593304
1	6287	40	1941.8192613758
1	6587	41	1955.7024557721
1	6888	42	1969.5841215905
1	7189	43	1983.4787444612
1	7509	44	1997.3802024601
1	7830	45	2011.2714909082
1	8151	46	2025.1553793969
1	8491	47	2039.0458765477
1	8832	48	2052.9329446238
1	9173	49	2066.8462265795
1	9533	50	2080.7728807703
1	9894	51	2094.6498483503
1	10255	52	2107.3969092406
1	10635	53	2116.410831539
1	11016	54	2120.9360540062
1	11397	55	2120.5048353085
1	11797	56	2120.0344859883
1	12198	57	2119.5641121576
1	12599	58	2119.0944308629
1	13019	59	2118.6240558857
1	13440	60	2118.1536666537
1	13861	61	2117.6824006466
1	14301	62	2117.2121830918
1	14742	63	2116.7411177447
1	15183	64	2116.2712858524
1	15643	65	2115.8005333487
1	16104	66	2114.7955725584
1	16565	67	2112.8364102887
1	17045	68	2110.6440530941
1	17526	69	2106.1704403665
1	18007	70	2101.6975887315
1	18507	71	2096.6391956527
1	19008	72	2089.5697793076
1	19509	73	2082.9376931852
1	20030	74	2078.419863862
1	20551	75	2076.1849181512
1	21072	76	2075.9235266512
1	21612	77	2075.9235266512
1	22153	78	2075.9235266512
1	22694	79	2075.9235266512
1	23254	80	2075.9235266512
1	23815	81	2075.9235266512
1	24376	82	2075.9235266512
1	24956	83	2075.9235266512
1	25537	84	2075.9235266512
2	61	2	4.1061966058897
2	102	3	6.0195495591482
2	143	4	7.7148368984793
2	203	5	9.5879868385225
2	264	6	11.391389363371
2	325	7	13.513839789145
2	405	8	13.99235115225
2	486	9	13.890224446259
2	567	10	13.976677174468
2	667	11	13.994826577434
2	768	12	13.923680325528
2	869	13	13.923542996629
2	989	14	13.91007151508
2	1110	15	13.964598868005
2	1231	16	13.995233640105
2	1371	17	13.952304350403
2	1512	18	13.956911946491
2	1653	19	11.503494614513
2	1813	20	7.0034946145128
2	1974	21	7.8970062485022
2	2135	22	10.10483181514
2	2315	23	11.990706169653
2	2496	24	13.981089308816
2	2677	25	13.965594365916
2	2877	26	13.989059597438
2	3078	27	13.956378436291
2	3279	28	13.910982951869
2	3499	29	13.88918493646
2	3720	30	13.908189346099
2	3941	31	13.983992603337
2	4181	32	13.971500478752
2	4422	33	13.873081948087
2	4663	34	13.985133641064
2	4923	35	13.886848415199
2	5184	36	13.876205747321
2	5445	37	13.967912819823
2	5725	38	13.871047234884
2	6006	39	13.89239756926
2	6287	40	13.872267716837
2	6587	41	13.999815066161
2	6888	42	13.964707984752
2	7189	43	13.906584702837
2	7509	44	13.922364303169
2	7830	45	13.929034490574
2	8151	46	13.93922677479
2	8491	47	13.924399639922
2	8832	48	13.96850544848
2	9173	49	13.986686690277
2	9533	50	13.935194088209
2	9894	51	13.930097484484
2	10255	52	13.948393711536
2	10635	53	13.882971800906
2	11016	54	13.87138918183
2	11397	55	13.933780807857
2	11797	56	13.942265776542
2	12198	57	13.95140511482
2	12599	58	13.886548467774
2	13019	59	13.920721456567
2	13440	60	13.906796863726
2	13861	61	13.917803910668
2	14301	62	13.924582225601
2	14742	63	13.959688465288
2	15183	64	13.957318032989
2	15643	65	13.940553226951
2	16104	66	13.998651232829
2	16565	67	13.999179182528
2	17045	68	13.886099785112
2	17526	69	13.881868150404
2	18007	70	13.887636745651
2	18507	71	13.978686858166
2	19008	72	11.380505228889
2	19509	73	6.8805052288885
2	20030	74	2.3805052288885
2	20551	75	0
2	21072	76	0
2	21612	77	0
2	22153	78	0
2	22694	79	0
2	23254	80	0
2	23815	81	0
2	24376	82	0
2	24956	83	0
2	25537	84	0
3	102	3	1.9133529532584
3	143	4	1.6952873393311
3	203	5	1.8731499400432
3	264	6	1.8034025248489
3	325	7	2.1224504257739
3	405	8	0.47851136310433
3	486	9	-0.1021267059911
3	567	10	0.086452728209551
3	667	11	0.018149402965792
3	768	12	-0.071146251906175
3	869	13	-0.0001373288989992
3	989	14	-0.013471481548622
3	1110	15	0.054527352924923
3	1231	16	0.03063477210002
3	1371	17	-0.04292928970186
3	1512	18	0.0046075960877356
3	1653	19	-2.4534173319781
3	1813	20	-4.5
3	1974	21	0.8935116339894
3	2135	22	2.2078255666373
3	2315	23	1.8858743545134
3	2496	24	1.9903831391631
3	2677	25	-0.01549494290026
3	2877	26	0.023465231521987
3	3078	27	-0.032681161146611
3	3279	28	-0.045395484422334
3	3499	29	-0.021798015409148
3	3720	30	0.019004409639164
3	3941	31	0.075803257238585
3	4181	32	-0.012492124584968
3	4422	33	-0.098418530665803
3	4663	34	0.11205169297755
3	4923	35	-0.098285225864965
3	5184	36	-0.01064266787842
3	5445	37	0.091707072502468
3	5725	38	-0.096865584938786
3	6006	39	0.021350334375166
3	6287	40	-0.020129852422979
3	6587	41	0.12754734932445
3	6888	42	-0.035107081409079
3	7189	43	-0.058123281914741
3	7509	44	0.015779600332026
3	7830	45	0.0066701874043797
3	8151	46	0.010192284216172
3	8491	47	-0.014827134867664
3	8832	48	0.044105808557942
3	9173	49	0.018181241797283
3	9533	50	-0.051492602068466
3	9894	51	-0.0050966037251055
3	10255	52	0.018296227052343
3	10635	53	-0.065421910630539
3	11016	54	-0.011582619075197
3	11397	55	0.062391626026946
3	11797	56	0.0084849686850799
3	12198	57	0.0091393382777465
3	12599	58	-0.064856647045817
3	13019	59	0.034172988792415
3	13440	60	-0.013924592840485
3	13861	61	0.011007046941668
3	14301	62	0.0067783149331806
3	14742	63	0.035106239686721
3	15183	64	-0.0023704322986315
3	15643	65	-0.016764806038699
3	16104	66	0.058098005878273
3	16565	67	0.0005279496987356
3	17045	68	-0.11307939741528
3	17526	69	-0.0042316347081215
3	18007	70	0.0057685952470639
3	18507	71	0.091050112515221
3	19008	72	-2.598181629278
3	19509	73	-4.5
3	20030	74	-4.5
3	20551	75	-2.3805052288885
3	21072	76	0
3	21612	77	0
3	22153	78	0
3	22694	79	0
3	23254	80	0
3	23815	81	0
3	24376	82	0
3	24956	83	0
3	25537	84	0
4	102	3	4.1962556146115
4	143	4	4.6765885426193
4	203	5	5.9822455727343
4	264	6	6.7469998477461
4	325	7	8.9023657158011
4	405	8	3.651678681686
4	486	9	1.6857621818206
4	567	10	2.3276633668785
4	667	11	2.0995306276608
4	768	12	1.7923040941768
4	869	13	2.0305681317735
4	989	14	1.9844951865828
4	1110	15	2.2187318873595
4	1231	16	2.1416854339172
4	1371	17	1.8896148890835
4	1512	18	2.0499339673421
4	1653	19	0.973
4	1813	20	0.973
4	1974	21	3.236958348016
4	2135	22	7.0694109561587
4	2315	23	7.2974163894139
4	2496	24	8.7433911631671
4	2677	25	1.9831721788576
4	2877	26	2.116835898497
4	3078	27	1.9244585801898
4	3279	28	1.8775583559564
4	3499	29	1.9545657515643
4	3720	30	2.0931646705581
4	3941	31	2.2926746988581
4	4181	32	1.993865292131
4	4422	33	1.6968396252803
4	4663	34	2.4149847823944
4	4923	35	1.6983583398882
4	5184	36	1.9906198998388
4	5445	37	2.3442713071536
4	5725	38	1.7018725964397
4	6006	39	2.0993392475273
4	6287	40	1.9585122345881
4	6587	41	2.4691677522194
4	6888	42	1.9170802753567
4	7189	43	1.8345014514108
4	7509	44	2.0838538984303
4	7830	45	2.0539801513469
4	8151	46	2.0668686152862
4	8491	47	1.9813596940184
4	8832	48	2.1840996762636
4	9173	49	2.0987681125428
4	9533	50	1.8592856847688
4	9894	51	2.0145873760113
4	10255	52	2.0950692067684
4	10635	53	1.8080099866508
4	11016	54	1.9870007069688
4	11397	55	2.2415869227426
4	11797	56	2.0614496349521
4	12198	57	2.0646020593826
4	12599	58	1.8102089718445
4	13019	59	2.1453880261281
4	13440	60	1.9826536733129
4	13861	61	2.0673636130683
4	14301	62	2.0538817544551
4	14742	63	2.1528270365066
4	15183	64	2.0265038417738
4	15643	65	1.9764402783138
4	16104	66	2.2347131127692
4	16565	67	2.0405446651404
4	17045	68	1.6487905152147
4	17526	69	2.0126291187762
4	18007	70	2.0466796925005
4	18507	71	2.3433989621326
4	19008	72	0.973
4	19509	73	0.973
4	20030	74	0.973
4	20551	75	0.973
4	21072	76	0.973
4	21612	77	0.973
4	22153	78	0.973
4	22694	79	0.973
4	23254	80	0.973
4	23815	81	0.973
4	24376	82	0.973
4	24956	83	0.973
4	25537	84	0.973
5	143	4	2414.8767583254
5	203	5	2414.8767583254
5	264	6	2411.8725636174
5	325	7	2407.2970525089
5	405	8	2402.4626210862
5	486	9	2396.3056860371
5	567	10	2388.8743536096
5	667	11	2380.097228827
5	768	12	2370.3507264333
5	869	13	2360.5878487076
5	989	14	2350.7849318213
5	1110	15	2341.2418729237
5	1231	16	2334.6305580324
5	1371	17	2337.3467480277
5	1512	18	2348.0519014368
5	1653	19	2358.3998493504
5	1813	20	2371.2788021446
5	1974	21	2385.0887639745
5	2135	22	2398.4985461925
5	2315	23	2411.2485283293
5	2496	24	2420.6905829484
5	2677	25	2427.6440450998
5	2877	26	2431.3031180431
5	3078	27	2432.9057471878
5	3279	28	2434.8184996871
5	3499	29	2436.9106889558
5	3720	30	2438.5031214217
5	3941	31	2439.359314087
5	4181	32	2440.3695716034
5	4422	33	2441.3815056744
5	4663	34	2442.392207776
5	4923	35	2443.4019859718
5	5184	36	2444.4122552489
5	5445	37	2445.4251439738
5	5725	38	2446.4367595227
5	6006	39	2447.4467230743
5	6287	40	2448.4574488286
5	6587	41	2449.467800329
5	6888	42	2450.4780716181
5	7189	43	2449.7461704329
5	7509	44	2448.6331060936
5	7830	45	2447.5209445587
5	8151	46	2446.407523851
5	8491	47	2445.2946584851
5	8832	48	2444.1824360332
5	9173	49	2443.0706190476
5	9533	50	2441.9568028547
5	9894	51	2440.8451110823
5	10255	52	2439.8503503047
5	10635	53	2438.9091742415
5	11016	54	2438.2310626655
5	11397	55	2433.9050446447
5	11797	56	2424.21615465
5	12198	57	2411.3460908785
5	12599	58	2397.4706148925
5	13019	59	2383.5587488873
5	13440	60	2369.633660475
5	13861	61	2355.7048479554
5	14301	62	2341.7904321874
5	14742	63	2327.8638711022
5	15183	64	2313.9188814831
5	15643	65	2299.9979078089
5	16104	66	2286.0826278217
5	16565	67	2272.1551827891
5	17045	68	2258.2333055256
5	17526	69	2244.3319301521
5	18007	70	2230.5388995206
5	18507	71	2216.7493601282
5	19008	72	2203.5089906314
5	19509	73	2190.3028214657
5	20030	74	2177.2175397498
5	20551	75	2166.0508945999
5	21072	76	2157.6231104804
5	21612	77	2151.7712981963
5	22153	78	2148.1230201763
5	22694	79	2146.1290875688
5	23254	80	2145.2101491778
5	23815	81	2144.8407904832
5	24376	82	2144.7060883162
5	24956	83	2144.6576023959
5	25537	84	2144.6402772203
6	143	4	1578.4506684253
6	203	5	1578.4506684253
6	264	6	1579.5537930429
6	325	7	1581.4165868293
6	405	8	1586.3131998433
6	486	9	1592.5493268352
6	567	10	1600.0762428036
6	667	11	1608.9662610246
6	768	12	1618.8381252186
6	869	13	1628.7265753681
6	989	14	1638.6555796713
6	1110	15	1648.8046840783
6	1231	16	1660.6325348346
6	1371	17	1673.301875555
6	1512	18	1682.2138796467
6	1653	19	1691.5459182626
6	1813	20	1695.5099147679
6	1974	21	1697.3308411958
6	2135	22	1698.6335971011
6	2315	23	1699.8391930545
6	2496	24	1700.7320023719
6	2677	25	1701.2941834759
6	2877	26	1708.3978488175
6	3078	27	1718.9439634858
6	3279	28	1731.5308475178
6	3499	29	1745.2985167308
6	3720	30	1759.1189484736
6	3941	31	1773.033284259
6	4181	32	1786.9263172904
6	4422	33	1800.8424062571
6	4663	34	1814.7415532097
6	4923	35	1828.6279946407
6	5184	36	1842.5211894047
6	5445	37	1856.4504067414
6	5725	38	1870.362115399
6	6006	39	1884.2511058366
6	6287	40	1898.150578063
6	6587	41	1912.0449035605
6	6888	42	1925.9381259941
6	7189	43	1939.8457802581
6	7509	44	1953.7382693188
6	7830	45	1967.6194902081
6	8151	46	1981.5164272105
6	8491	47	1995.4064328251
6	8832	48	2009.2884140396
6	9173	49	2023.165334505
6	9533	50	2037.0672076773
6	9894	51	2050.942565321
6	10255	52	2064.8483957723
6	10635	53	2078.754013543
6	11016	54	2092.6537938379
6	11397	55	2105.6893007364
6	11797	56	2115.3934075218
6	12198	57	2120.5034639826
6	12599	58	2120.5707901428
6	13019	59	2120.100904949
6	13440	60	2119.6305731572
6	13861	61	2119.160115581
6	14301	62	2118.6901442679
6	14742	63	2118.2197627351
6	15183	64	2117.748758764
6	15643	65	2117.2785659507
6	16104	66	2116.8085654471
6	16565	67	2116.3381540589
6	17045	68	2115.8679307271
6	17526	69	2115.0734324455
6	18007	70	2113.117474094
6	18507	71	2111.1620108271
6	19008	72	2106.8134566117
6	19509	73	2102.3345389208
6	20030	74	2097.6439806372
6	20551	75	2091.0703529529
6	21072	76	2086.1090495121
6	21612	77	2082.6641800171
6	22153	78	2080.516496351
6	22694	79	2079.3426997084
6	23254	80	2078.8017351869
6	23815	81	2078.584299556
6	24376	82	2078.5050025163
6	24956	83	2078.4764596215
6	25537	84	2078.4662605636
7	203	5	4.0332649588119
7	264	6	5.8265110515686
7	325	7	7.7852127750962
7	405	8	9.5658873894228
7	486	9	11.450149483434
7	567	10	13.391487500134
7	667	11	13.949883621705
7	768	12	13.87602620427
7	869	13	13.885232782268
7	989	14	13.987373048679
7	1110	15	13.890608048609
7	1231	16	13.887004709987
7	1371	17	13.926980708602
7	1512	18	13.89086526999
7	1653	19	13.965056618985
7	1813	20	13.946692067499
7	1974	21	13.097137451398
7	2135	22	11.939132677032
7	2315	23	7.4783001788439
7	2496	24	7.8592269216425
7	2677	25	9.5749213322898
7	2877	26	11.610942506126
7	3078	27	13.581243869506
7	3279	28	13.973211987913
7	3499	29	13.918392209036
7	3720	30	13.928662607018
7	3941	31	13.985277111761
7	4181	32	13.95532245066
7	4422	33	13.938708755139
7	4663	34	13.908545650935
7	4923	35	13.927478809105
7	5184	36	13.897819017794
7	5445	37	13.989504252097
7	5725	38	13.94374062394
7	6006	39	13.903882643976
7	6287	40	13.969130632835
7	6587	41	13.884234787642
7	6888	42	13.881978327318
7	7189	43	13.927070145076
7	7509	44	13.922745489741
7	7830	45	13.95273740395
7	8151	46	13.968270483359
7	8491	47	13.918685564972
7	8832	48	13.921468284922
7	9173	49	13.897015957548
7	9533	50	13.964752228069
7	9894	51	13.91147568828
7	10255	52	13.974545761354
7	10635	53	13.965476403411
7	11016	54	13.989670229855
7	11397	55	13.951804798429
7	11797	56	13.892850009208
7	12198	57	13.958218119799
7	12599	58	13.933717581006
7	13019	59	13.982012811573
7	13440	60	13.954506225567
7	13861	61	13.954468280503
7	14301	62	13.914126337939
7	14742	63	13.998578815588
7	15183	64	13.932968401979
7	15643	65	13.954534002345
7	16104	66	13.957377178506
7	16565	67	13.932528918332
7	17045	68	13.977439161665
7	17526	69	13.873707558191
7	18007	70	13.945779315263
7	18507	71	13.942668949808
7	19008	72	13.91575948562
7	19509	73	13.907857767178
7	20030	74	11.509649644586
7	20551	75	8.354934886828
7	21072	76	5.5437759062738
7	21612	77	3.307407476074
7	22153	78	1.6348540751313
7	22694	79	0.71722348573033
7	23254	80	0.25744643425691
7	23815	81	0.096330583691781
7	24376	82	0.033582834564042
7	24956	83	0.012074018451278
7	25537	84	0.0044146382852531
8	264	6	1.7932460927567
8	325	7	1.9587017235276
8	405	8	1.7806746143266
8	486	9	1.8842620940111
8	567	10	1.9413380167005
8	667	11	0.5583961215709
8	768	12	-0.073857417434921
8	869	13	0.0092065779981212
8	989	14	0.10214026641101
8	1110	15	-0.096765000070445
8	1231	16	-0.0036033386224883
8	1371	17	0.039975998615846
8	1512	18	-0.036115438612178
8	1653	19	0.074191348995083
8	1813	20	-0.018364551486448
8	1974	21	-0.84955461610103
8	2135	22	-1.1580047743662
8	2315	23	-4.4608324981877
8	2496	24	0.38092674279862
8	2677	25	1.7156944106473
8	2877	26	2.0360211738362
8	3078	27	1.9703013633797
8	3279	28	0.39196811840698
8	3499	29	-0.054819778876846
8	3720	30	0.010270397982096
8	3941	31	0.056614504742901
8	4181	32	-0.029954661100637
8	4422	33	-0.016613695521373
8	4663	34	-0.030163104203529
8	4923	35	0.018933158169965
8	5184	36	-0.029659791311714
8	5445	37	0.091685234303586
8	5725	38	-0.045763628156855
8	6006	39	-0.039857979963999
8	6287	40	0.065247988859191
8	6587	41	-0.08489584519295
8	6888	42	-0.0022564603248618
8	7189	43	0.045091817758511
8	7509	44	-0.0043246553349299
8	7830	45	0.029991914208512
8	8151	46	0.015533079409506
8	8491	47	-0.0495849183877
8	8832	48	0.0027827199501917
8	9173	49	-0.024452327373437
8	9533	50	0.067736270520836
8	9894	51	-0.053276539789513
8	10255	52	0.063070073074195
8	10635	53	-0.0090693579427903
8	11016	54	0.024193826443517
8	11397	55	-0.037865431425162
8	11797	56	-0.058954789221753
8	12198	57	0.065368110591081
8	12599	58	-0.024500538792926
8	13019	59	0.048295230567454
8	13440	60	-0.027506586005911
8	13861	61	-3.7945064249811e-05
8	14301	62	-0.040341942564119
8	14742	63	0.08445247764932
8	15183	64	-0.065610413609539
8	15643	65	0.021565600365866
8	16104	66	0.0028431761614058
8	16565	67	-0.024848260174041
8	17045	68	0.044910243332852
8	17526	69	-0.10373160347343
8	18007	70	0.072071757072118
8	18507	71	-0.0031103654555054
8	19008	72	-0.02690946418792
8	19509	73	-0.0079017184418628
8	20030	74	-2.3982081225927
8	20551	75	-3.1547147577576
8	21072	76	-2.8111589805542
8	21612	77	-2.2363684301998
8	22153	78	-1.6725534009427
8	22694	79	-0.91763058940095
8	23254	80	-0.45977705147342
8	23815	81	-0.16111585056513
8	24376	82	-0.062747749127738
8	24956	83	-0.021508816112765
8	25537	84	-0.0076593801660245
9	264	6	3.9274001426868
9	325	7	5.2041356246368
9	405	8	5.7574507674447
9	486	9	7.0006276784153
9	567	10	8.2432295261252
9	667	11	3.9110016848773
9	768	12	1.7792042638201
9	869	13	2.0579365757541
9	989	14	2.3818636967155
9	1110	15	1.7037407999188
9	1231	16	2.0152488537881
9	1371	17	2.1655550639215
9	1512	18	1.906797412239
9	1653	19	2.2849654495652
9	1813	20	1.9716653983805
9	1974	21	0.973
9	2135	22	0.973
9	2315	23	0.973
9	2496	24	2.2554772362628
9	2677	25	5.6120472675651
9	2877	26	7.5119842129131
9	3078	27	8.4455276517466
9	3279	28	3.3560730035355
9	3499	29	1.8466200733259
9	3720	30	2.0660268329645
9	3941	31	2.2281549844786
9	4181	32	1.9335288120447
9	4422	33	1.9767670407741
9	4663	34	1.9283950769156
9	4923	35	2.0949799016024
9	5184	36	1.9290667558988
9	5445	37	2.3468857079218
9	5725	38	1.8793040227889
9	6006	39	1.8954681876561
9	6287	40	2.2553467174174
9	6587	41	1.7429567241042
9	6888	42	2.0192482635441
9	7189	43	2.1827359052182
9	7509	44	2.0164367628106
9	7830	45	2.1348602115454
9	8151	46	2.0878872407227
9	8491	47	1.8642059318509
9	8832	48	2.0401536442479
9	9173	49	1.9464315106901
9	9533	50	2.2632042711189
9	9894	51	1.851180617826
9	10255	52	2.2486511283506
9	10635	53	2.0047870143605
9	11016	54	2.1193583924862
9	11397	55	1.9065956504161
9	11797	56	1.8305118457369
9	12198	57	2.2544630998412
9	12599	58	1.9497933768092
9	13019	59	2.199742909699
9	13440	60	1.9416842431598
9	13861	61	2.0340583936544
9	14301	62	1.8947902862501
9	14742	63	2.3236156337703
9	15183	64	1.8116807487081
9	15643	65	2.1067187558746
9	16104	66	2.0440470145686
9	16565	67	1.9485115452067
9	17045	68	2.1878187851485
9	17526	69	1.6791237400594
9	18007	70	2.2755265645048
9	18507	71	2.0225291815531
9	19008	72	1.9399893034582
9	19509	73	2.0029455902709
9	20030	74	0.973
9	20551	75	0.973
9	21072	76	0.973
9	21612	77	0.973
9	22153	78	0.973
9	22694	79	0.973
9	23254	80	0.973
9	23815	81	0.973
9	24376	82	1.1111121928442
9	24956	83	1.1105198636326
9	25537	84	1.1102048131311
10	325	7	2414.8848622198
10	405	8	2414.8848622198
10	486	9	2412.0691307599
10	567	10	2407.3819784434
10	667	11	2402.4639103656
10	768	12	2396.2016479742
10	869	13	2388.5021761758
10	989	14	2379.5347220144
10	1110	15	2369.7521497252
10	1231	16	2359.9648396304
10	1371	17	2350.1637192596
10	1512	18	2340.717056727
10	1653	19	2334.4889366638
10	1813	20	2338.0188398167
10	1974	21	2348.6970945761
10	2135	22	2359.0578910074
10	2315	23	2372.1753142256
10	2496	24	2385.9847009928
10	2677	25	2399.0560799135
10	2877	26	2411.469456295
10	3078	27	2420.8240344936
10	3279	28	2428.2511095385
10	3499	29	2431.5096723901
10	3720	30	2433.2168502312
10	3941	31	2435.2011956087
10	4181	32	2437.29147981
10	4422	33	2438.672857787
10	4663	34	2439.5458305131
10	4923	35	2440.5569901068
10	5184	36	2441.5662171456
10	5445	37	2442.5764760413
10	5725	38	2443.5864360537
10	6006	39	2444.5969193554
10	6287	40	2445.6077267987
10	6587	41	2446.6171177449
10	6888	42	2447.6285385494
10	7189	43	2448.6389437378
10	7509	44	2449.6489775468
10	7830	45	2450.659299592
10	8151	46	2449.5461587089
10	8491	47	2448.4337074455
10	8832	48	2447.3207898499
10	9173	49	2446.207873206
10	9533	50	2445.0940501215
10	9894	51	2443.9833638043
10	10255	52	2442.8694501355
10	10635	53	2441.7571938549
10	11016	54	2440.6460889142
10	11397	55	2439.6824932018
10	11797	56	2438.741084579
10	12198	57	2437.8178922307
10	12599	58	2432.628875918
10	13019	59	2422.099758557
10	13440	60	2408.9617932498
10	13861	61	2395.0275024913
10	14301	62	2381.1194986589
10	14742	63	2367.2108877165
10	15183	64	2353.2913366285
10	15643	65	2339.3363710896
10	16104	66	2325.3913249692
10	16565	67	2311.4476897647
10	17045	68	2297.4983647275
10	17526	69	2283.5801531249
10	18007	70	2269.6389171832
10	18507	71	2255.7127677456
10	19008	72	2241.8359768615
10	19509	73	2228.0496562888
10	20030	74	2214.3204117303
10	20551	75	2201.130388199
10	21072	76	2187.9466372953
10	21612	77	2175.8540693277
10	22153	78	2166.8951848735
10	22694	79	2160.0560415246
10	23254	80	2155.1967882412
10	23815	81	2152.0658747323
10	24376	82	2150.332577554
10	24956	83	2149.5013543733
10	25537	84	2149.1536897024
11	325	7	1578.4476927174
11	405	8	1578.4476927174
11	486	9	1579.4816146148
11	567	10	1581.3305685576
11	667	11	1586.311893981
11	768	12	1592.6547030602
11	869	13	1600.4532072712
11	989	14	1609.5360029312
11	1110	15	1619.4444009606
11	1231	16	1629.3575977338
11	1371	17	1639.2847824143
11	1512	18	1649.4765304932
11	1653	19	1661.4854336744
11	1813	20	1673.8446300924
11	1974	21	1682.7957309801
11	2135	22	1692.1393567109
11	2315	23	1695.6439150097
11	2496	24	1697.4374776948
11	2677	25	1698.6863156371
11	2877	26	1699.860083269
11	3078	27	1700.7446211064
11	3279	28	1701.4003788568
11	3499	29	1709.757081449
11	3720	30	1720.9911797
11	3941	31	1734.0491812732
11	4181	32	1747.8043141738
11	4422	33	1761.6824669717
11	4663	34	1775.5982529195
11	4923	35	1789.5036912933
11	5184	36	1803.3825532272
11	5445	37	1817.2756052278
11	5725	38	1831.1645469936
11	6006	39	1845.0606850199
11	6287	40	1858.9612806309
11	6587	41	1872.8423966132
11	6888	42	1886.7514271513
11	7189	43	1900.646490965
11	7509	44	1914.536447579
11	7830	45	1928.4487420022
11	8151	46	1942.3421864314
11	8491	47	1956.2270235084
11	8832	48	1970.117681019
11	9173	49	1984.0083266487
11	9533	50	1997.9102858361
11	9894	51	2011.7730940934
11	10255	52	2025.6761838896
11	10635	53	2039.5585873295
11	11016	54	2053.4266205495
11	11397	55	2067.3284383547
11	11797	56	2081.2374921273
11	12198	57	2095.1151711773
11	12599	58	2107.8121583294
11	13019	59	2116.6019557538
11	13440	60	2120.9589145361
11	13861	61	2120.4882719275
11	14301	62	2120.0185171831
11	14742	63	2119.548741932
11	15183	64	2119.0785971684
11	15643	65	2118.6072562514
11	16104	66	2118.1362503711
11	16565	67	2117.6652921457
11	17045	68	2117.1941417418
11	17526	69	2116.724042221
11	18007	70	2116.2531650327
11	18507	71	2115.7827974036
11	19008	72	2114.7194869779
11	19509	73	2112.7644801643
11	20030	74	2110.4801872596
11	20551	75	2106.0067454157
11	21072	76	2101.5354309557
11	21612	77	2096.841327128
11	22153	78	2091.5673733056
11	22694	79	2087.5412776032
11	23254	80	2084.6807119204
11	23815	81	2082.8375925729
11	24376	82	2081.8172278916
11	24956	83	2081.3278999301
11	25537	84	2081.1232352275
12	405	8	3.930963162637
12	486	9	5.9263112237273
12	567	10	7.8381960794392
12	667	11	9.790430662247
12	768	12	11.728100012452
12	869	13	13.629514704516
12	989	14	13.941568216505
12	1110	15	13.881279769889
12	1231	16	13.897868440901
12	1371	17	13.925429278756
12	1512	18	13.988464023101
12	1653	19	13.968606978769
12	1813	20	13.918509052745
12	1974	21	13.924308654484
12	2135	22	13.951645852409
12	2315	23	13.87926841794
12	2496	24	12.793519969494
12	2677	25	11.84351296104
12	2877	26	7.4038563960913
12	3078	27	8.4727548549238
12	3279	28	10.367830629347
12	3499	29	12.18869854925
12	3720	30	13.961659159465
12	3941	31	13.954832898835
12	4181	32	13.985199820679
12	4422	33	13.894128147855
12	4663	34	13.93747920732
12	4923	35	13.922516686122
12	5184	36	13.936551663636
12	5445	37	13.899921349036
12	5725	38	13.905686459227
12	6006	39	13.974518650502
12	6287	40	13.926188751743
12	6587	41	13.91506882193
12	6888	42	13.902084701743
12	7189	43	13.906688486487
12	7509	44	13.974945872892
12	7830	45	13.897515056985
12	8151	46	13.921723058985
12	8491	47	13.971591069859
12	8832	48	13.925448836959
12	9173	49	13.871581884674
12	9533	50	13.876423048137
12	9894	51	13.873938687814
12	10255	52	13.902598275633
12	10635	53	13.87539361449
12	11016	54	13.972987024514
12	11397	55	13.957628285089
12	11797	56	13.950985880545
12	12198	57	13.943263569523
12	12599	58	13.891897078918
12	13019	59	13.874182712052
12	13440	60	13.982985400616
12	13861	61	13.927164004399
12	14301	62	13.899862960158
12	14742	63	13.960168966714
12	15183	64	13.961850514959
12	15643	65	13.962242161995
12	16104	66	13.925234322341
12	16565	67	13.991972472956
12	17045	68	13.975208927125
12	17526	69	13.946616810667
12	18007	70	13.894927249895
12	18507	71	13.997537077854
12	19008	72	13.937148143742
12	19509	73	13.949254455173
12	20030	74	13.997392567724
12	20551	75	13.892845066143
12	21072	76	11.787824280837
12	21612	77	9.2477227385416
12	22153	78	6.86540096584
12	22694	79	4.7046209588023
12	23254	80	2.8641315859363
12	23815	81	1.435280022115
12	24376	82	0.62780889662581
12	24956	83	0.25782569870556
12	25537	84	0.096787157257653
13	486	9	1.9953480610903
13	567	10	1.9118848557118
13	667	11	1.9522345828079
13	768	12	1.9376693502045
13	869	13	1.9014146920643
13	989	14	0.31205351198868
13	1110	15	-0.060288446615449
13	1231	16	0.016588671011849
13	1371	17	0.027560837855562
13	1512	18	0.063034744344186
13	1653	19	-0.019857044331729
13	1813	20	-0.050097926023881
13	1974	21	0.0057996017392714
13	2135	22	0.027337197924499
13	2315	23	-0.072377434468363
13	2496	24	-1.0857484484466
13	2677	25	-0.95000700845353
13	2877	26	-4.439656564949
13	3078	27	1.0688984588324
13	3279	28	1.8950757744233
13	3499	29	1.8208679199032
13	3720	30	1.7729606102145
13	3941	31	-0.0068262606300422
13	4181	32	0.03036692184396
13	4422	33	-0.091071672823745
13	4663	34	0.043351059465204
13	4923	35	-0.01496252119774
13	5184	36	0.014034977513365
13	5445	37	-0.036630314600188
13	5725	38	0.0057651101914225
13	6006	39	0.068832191275433
13	6287	40	-0.048329898759256
13	6587	41	-0.01111992981285
13	6888	42	-0.012984120186884
13	7189	43	0.0046037847432316
13	7509	44	0.068257386405021
13	7830	45	-0.077430815906265
13	8151	46	0.02420800199965
13	8491	47	0.049868010873906
13	8832	48	-0.046142232900019
13	9173	49	-0.053866952285171
13	9533	50	0.0048411634634249
13	9894	51	-0.0024843603232867
13	10255	52	0.028659587819128
13	10635	53	-0.027204661143477
13	11016	54	0.09759341002442
13	11397	55	-0.015358739425428
13	11797	56	-0.0066424045432356
13	12198	57	-0.007722311022226
13	12599	58	-0.051366490605288
13	13019	59	-0.017714366866276
13	13440	60	0.10880268856417
13	13861	61	-0.055821396217215
13	14301	62	-0.027301044240593
13	14742	63	0.06030600655591
13	15183	64	0.0016815482452515
13	15643	65	0.00039164703572148
13	16104	66	-0.037007839654107
13	16565	67	0.066738150615711
13	17045	68	-0.0167635458312
13	17526	69	-0.028592116457874
13	18007	70	-0.051689560771921
13	18507	71	0.10260982795851
13	19008	72	-0.060388934111689
13	19509	73	0.01210631143069
13	20030	74	0.048138112551532
13	20551	75	-0.10454750158125
13	21072	76	-2.1050207853061
13	21612	77	-2.5401015422956
13	22153	78	-2.3823217727016
13	22694	79	-2.1607800070377
13	23254	80	-1.840489372866
13	23815	81	-1.4288515638212
13	24376	82	-0.80747112548923
13	24956	83	-0.36998319792025
13	25537	84	-0.1610385414479
14	486	9	4.2649508166984
14	567	10	5.1441608835298
14	667	11	6.2752675611406
14	768	12	7.3015557220543
14	869	13	8.2469806235914
14	989	14	3.0813423760871
14	1110	15	1.825038103975
14	1231	16	2.0839753981971
14	1371	17	2.1237162576214
14	1512	18	2.2501690272635
14	1653	19	1.9687844028223
14	1813	20	1.8624692368163
14	1974	21	2.0505690853877
14	2135	22	2.1258147014109
14	2315	23	1.7844264067381
14	2496	24	0.973
14	2677	25	0.973
14	2877	26	0.973
14	3078	27	3.7575341079103
14	3279	28	6.4482222684255
14	3499	29	7.2140195323343
14	3720	30	8.0005078452345
14	3941	31	2.0112657729674
14	4181	32	2.1396802881933
14	4422	33	1.7230808185304
14	4663	34	2.1780640158967
14	4923	35	1.980720158986
14	5184	36	2.0794954629949
14	5445	37	1.9059152732614
14	5725	38	2.0485298427513
14	6006	39	2.2680539427787
14	6287	40	1.8690933945628
14	6587	41	1.9928741031296
14	6888	42	1.9853406570184
14	7189	43	2.0447410785649
14	7509	44	2.2661688405632
14	7830	45	1.7690384486571
14	8151	46	2.1120645090544
14	8491	47	2.2038504354464
14	8832	48	1.8763684319447
14	9173	49	1.8456610488087
14	9533	50	2.0424227277346
14	9894	51	2.0176736696174
14	10255	52	2.1249196677245
14	10635	53	1.9351566644326
14	11016	54	2.3647248781457
14	11397	55	1.9828454643184
14	11797	56	2.0114971183472
14	12198	57	2.007091813677
14	12599	58	1.8558336695686
14	13019	59	1.9667740746073
14	13440	60	2.4037578966905
14	13861	61	1.844036691971
14	14301	62	1.9371616602798
14	14742	63	2.2376623461065
14	15183	64	2.0405988072341
14	15643	65	2.0362986285583
14	16104	66	1.9070037954822
14	16565	67	2.2630700095878
14	17045	68	1.9798474403324
14	17526	69	1.9372818212763
14	18007	70	1.8550225742329
14	18507	71	2.3847397299678
14	19008	72	1.8295794064806
14	19509	73	2.0743518631084
14	20030	74	2.2009680002035
14	20551	75	1.6778590032699
14	21072	76	0.973
14	21612	77	0.973
14	22153	78	0.973
14	22694	79	0.973
14	23254	80	0.973
14	23815	81	0.973
14	24376	82	0.973
14	24956	83	0.973
14	25537	84	0.973
15	567	10	2414.8652957816
15	667	11	2414.8652957816
15	768	12	2411.9402292009
15	869	13	2407.1594214574
15	989	14	2402.0350675649
15	1110	15	2395.5354035812
15	1231	16	2387.5598131203
15	1371	17	2378.2983909701
15	1512	18	2368.4972038758
15	1653	19	2358.719633554
15	1813	20	2348.9248444787
15	1974	21	2339.614370346
15	2135	22	2334.1997176057
15	2315	23	2339.4193692133
15	2496	24	2350.023330241
15	2677	25	2360.3662725991
15	2877	26	2373.90233667
15	3078	27	2387.7152259793
15	3279	28	2400.5914429313
15	3499	29	2412.9398871803
15	3720	30	2421.7139854309
15	3941	31	2429.0882121673
15	4181	32	2431.6639768599
15	4422	33	2433.4302155024
15	4663	34	2435.4611475593
15	4923	35	2437.5533698815
15	5184	36	2438.7684759141
15	5445	37	2439.671540139
15	5725	38	2440.6813741141
15	6006	39	2441.6917844916
15	6287	40	2442.7022041357
15	6587	41	2443.7124593587
15	6888	42	2444.7229332504
15	7189	43	2445.7337078364
15	7509	44	2446.7459111849
15	7830	45	2447.757486716
15	8151	46	2448.7683903823
15	8491	47	2449.7777371067
15	8832	48	2450.5176811377
15	9173	49	2449.4057673637
15	9533	50	2448.2921364765
15	9894	51	2447.1808208324
15	10255	52	2446.0691226661
15	10635	53	2444.9566500478
15	11016	54	2443.8447802094
15	11397	55	2442.731477023
15	11797	56	2441.6197022425
15	12198	57	2440.5080080784
15	12599	58	2439.5670555097
15	13019	59	2438.6556009268
15	13440	60	2437.5062560235
15	13861	61	2431.5722499692
15	14301	62	2420.527699944
15	14742	63	2407.2382113171
15	15183	64	2393.3269784888
15	15643	65	2379.3955530388
15	16104	66	2365.4745847809
15	16565	67	2351.529199079
15	17045	68	2337.6079130118
15	17526	69	2323.6725767179
15	18007	70	2309.7385225614
15	18507	71	2295.8080973643
15	19008	72	2281.8952010303
15	19509	73	2267.9654732505
15	20030	74	2254.0466482575
15	20551	75	2240.1839215464
15	21072	76	2226.3952670011
15	21612	77	2212.7433891206
15	22153	78	2199.5532363574
15	22694	79	2186.6275330838
15	23254	80	2175.9886347088
15	23815	81	2168.1516067662
15	24376	82	2162.2726257491
15	24956	83	2158.2011129982
15	25537	84	2155.6801527158
16	567	10	1578.4548774119
16	667	11	1578.4548774119
16	768	12	1579.5289465943
16	869	13	1581.5559881236
16	989	14	1586.7462526578
16	1110	15	1593.3295168448
16	1231	16	1601.4076912217
16	1371	17	1610.7882359559
16	1512	18	1620.7154882178
16	1653	19	1630.6188199436
16	1813	20	1640.5395918936
16	1974	21	1650.8881406859
16	2135	22	1663.2272230769
16	2315	23	1674.9756418047
16	2496	24	1683.991763521
16	2677	25	1693.3192880014
16	2877	26	1695.9020503219
16	3078	27	1697.6139621651
16	3279	28	1698.8314944636
16	3499	29	1699.9991223291
16	3720	30	1700.8287719106
16	3941	31	1701.8119543158
16	4181	32	1710.77248332
16	4422	33	1722.3952316754
16	4663	34	1735.7597972872
16	4923	35	1749.5276840087
16	5184	36	1763.4065813264
16	5445	37	1777.3270081691
16	5725	38	1791.2142166747
16	6006	39	1805.1093518483
16	6287	40	1819.0046144547
16	6587	41	1832.8976159496
16	6888	42	1846.7936245678
16	7189	43	1860.6937683271
16	7509	44	1874.6135603888
16	7830	45	1888.5247187214
16	8151	46	1902.4266375881
16	8491	47	1916.3071454344
16	8832	48	1930.2163243052
16	9173	49	1944.0944528161
16	9533	50	1957.9940131316
16	9894	51	1971.8646762054
16	10255	52	1985.7401136523
16	10635	53	1999.6252172682
16	11016	54	2013.5027974071
16	11397	55	2027.3982675895
16	11797	56	2041.2746612821
16	12198	57	2055.1500487765
16	12599	58	2069.0339985425
16	13019	59	2082.9232102502
16	13440	60	2096.7668430749
16	13861	61	2109.1502521159
16	14301	62	2117.3046830418
16	14742	63	2120.90069908
16	15183	64	2120.4308352731
16	15643	65	2119.9602894429
16	16104	66	2119.4900968131
16	16565	67	2119.0190794626
16	17045	68	2118.5488760993
16	17526	69	2118.0781981768
16	18007	70	2117.6075635599
16	18507	71	2117.1370515134
16	19008	72	2116.6671315199
16	19509	73	2116.1966430303
16	20030	74	2115.7265227912
16	20551	75	2114.4852127647
16	21072	76	2112.5298749758
16	21612	77	2109.945334618
16	22153	78	2105.4718489451
16	22694	79	2101.0880522262
16	23254	80	2096.9205436436
16	23815	81	2092.3070090357
16	24376	82	2088.846145737
16	24956	83	2086.4493104676
16	25537	84	2084.9652609546
17	667	11	4.0076977833542
17	768	12	6.1677344774264
17	869	13	8.1549676716625
17	989	14	10.178332106699
17	1110	15	12.262859039094
17	1231	16	13.909239285488
17	1371	17	13.972104677679
17	1512	18	13.964405047395
17	1653	19	13.904001857305
17	1813	20	13.959390929798
17	1974	21	13.878038117993
17	2135	22	13.946876353603
17	2315	23	13.944667257406
17	2496	24	13.919344021892
17	2677	25	13.927560248445
17	2877	26	13.871213583788
17	3078	27	12.691334807668
17	3279	28	11.253789109264
17	3499	29	6.8021452137647
17	3720	30	8.5806848426844
17	3941	31	10.511503565412
17	4181	32	12.634297992723
17	4422	33	13.965718502484
17	4663	34	13.984844662666
17	4923	35	13.956789441942
17	5184	36	13.956542154332
17	5445	37	13.917345386401
17	5725	38	13.978046209081
17	6006	39	13.982312166321
17	6287	40	13.915473192113
17	6587	41	13.879970237834
17	6888	42	13.897895857247
17	7189	43	13.999869057706
17	7509	44	13.978634591533
17	7830	45	13.942230677728
17	8151	46	13.955766034983
17	8491	47	13.950300372976
17	8832	48	13.917481608128
17	9173	49	13.942320762996
17	9533	50	13.893100212866
17	9894	51	13.91633811252
17	10255	52	13.928179549885
17	10635	53	13.968941585214
17	11016	54	13.947614409933
17	11397	55	13.993828555658
17	11797	56	13.915365449623
17	12198	57	13.876728287677
17	12599	58	13.918426910553
17	13019	59	13.974088552413
17	13440	60	13.92781890474
17	13861	61	13.871840020602
17	14301	62	13.950818891171
17	14742	63	13.896373478309
17	15183	64	13.98123223257
17	15643	65	13.934642261642
17	16104	66	13.995758003502
17	16565	67	13.879077432866
17	17045	68	13.899420192223
17	17526	69	13.964884717481
17	18007	70	13.997399434138
17	18507	71	13.963054893557
17	19008	72	13.99507131309
17	19509	73	13.959758597296
17	20030	74	13.999156328384
17	20551	75	13.969890658425
17	21072	76	13.980162032277
17	21612	77	13.896995161234
17	22153	78	12.895918457595
17	22694	79	10.316482094486
17	23254	80	8.1005376777642
17	23815	81	5.8820015731492
17	24376	82	3.8731803985188
17	24956	83	2.2660461003021
17	25537	84	1.1103220699793
18	768	12	2.1600366940722
18	869	13	1.9872331942362
18	989	14	2.0233644350362
18	1110	15	2.0845269323955
18	1231	16	1.6463802463939
18	1371	17	0.062865392190869
18	1512	18	-0.0076996302837493
18	1653	19	-0.060403190089856
18	1813	20	0.055389072492252
18	1974	21	-0.081352811804972
18	2135	22	0.068838235610166
18	2315	23	-0.0022090961970385
18	2496	24	-0.025323235513643
18	2677	25	0.0082162265526122
18	2877	26	-0.056346664656886
18	3078	27	-1.1798787761197
18	3279	28	-1.4375456984038
18	3499	29	-4.4516438954996
18	3720	30	1.7785396289197
18	3941	31	1.9308187227277
18	4181	32	2.1227944273106
18	4422	33	1.3314205097611
18	4663	34	0.01912616018206
18	4923	35	-0.028055220723617
18	5184	36	-0.00024728761054682
18	5445	37	-0.039196767930406
18	5725	38	0.060700822679792
18	6006	39	0.0042659572395483
18	6287	40	-0.06683897420764
18	6587	41	-0.035502954279073
18	6888	42	0.017925619413145
18	7189	43	0.10197320045903
18	7509	44	-0.021234466172753
18	7830	45	-0.036403913805263
18	8151	46	0.013535357255023
18	8491	47	-0.0054656620067544
18	8832	48	-0.032818764848635
18	9173	49	0.024839154868388
18	9533	50	-0.049220550130123
18	9894	51	0.023237899653614
18	10255	52	0.011841437364929
18	10635	53	0.040762035329827
18	11016	54	-0.021327175281478
18	11397	55	0.046214145724662
18	11797	56	-0.078463106034324
18	12198	57	-0.038637161946388
18	12599	58	0.041698622875845
18	13019	59	0.055661641859915
18	13440	60	-0.046269647672306
18	13861	61	-0.055978884138167
18	14301	62	0.078978870569262
18	14742	63	-0.054445412862115
18	15183	64	0.084858754260932
18	15643	65	-0.046589970928617
18	16104	66	0.061115741860121
18	16565	67	-0.11668057063594
18	17045	68	0.0203427593573
18	17526	69	0.065464525257703
18	18007	70	0.032514716656879
18	18507	71	-0.034344540580641
18	19008	72	0.032016419533175
18	19509	73	-0.035312715794426
18	20030	74	0.039397731088101
18	20551	75	-0.029265669959132
18	21072	76	0.010271373852158
18	21612	77	-0.083166871042923
18	22153	78	-1.0010767036393
18	22694	79	-2.5794363631086
18	23254	80	-2.2159444167219
18	23815	81	-2.218536104615
18	24376	82	-2.0088211746303
18	24956	83	-1.6071342982168
18	25537	84	-1.1557240303228
19	768	12	4.6399364442395
19	869	13	5.459099048015
19	989	14	6.6616810382017
19	1110	15	8.0324172249288
19	1231	16	7.5484463594625
19	1371	17	2.247674957111
19	1512	18	2.0092894812461
19	1653	19	1.8266349661585
19	1813	20	2.2210298717235
19	1974	21	1.7543037306746
19	2135	22	2.264789170887
19	2315	23	2.0257606197441
19	2496	24	1.9456524984792
19	2677	25	2.059016748537
19	2877	26	1.8373388380236
19	3078	27	0.973
19	3279	28	0.973
19	3499	29	0.973
19	3720	30	5.2602175796137
19	3941	31	6.6156566027659
19	4181	32	8.3694083781091
19	4422	33	6.5165491496521
19	4663	34	2.1017560319966
19	4923	35	1.9400571066544
19	5184	36	2.0335662245147
19	5445	37	1.8989280401226
19	5725	38	2.2410813776431
19	6006	39	2.0514099723484
19	6287	40	1.8060532207838
19	6587	41	1.9078333116417
19	6888	42	2.0884562634303
19	7189	43	2.3828885778754
19	7509	44	1.9651224554136
19	7830	45	1.910615850939
19	8151	46	2.0798426520326
19	8491	47	2.015384407742
19	8832	48	1.9203331804895
19	9173	49	2.1164070517746
19	9533	50	1.8631262853673
19	9894	51	2.108230627045
19	10255	52	2.0712498573739
19	10635	53	2.1728920736305
19	11016	54	1.9617970432444
19	11397	55	2.1940726512002
19	11797	56	1.7670612526642
19	12198	57	1.8970499029483
19	12599	58	2.1703787731
19	13019	59	2.2236475952785
19	13440	60	1.876156120652
19	13861	61	1.8386234882413
19	14301	62	2.2993516664104
19	14742	63	1.8459222947006
19	15183	64	2.3228538313892
19	15643	65	1.8757004712267
19	16104	66	2.2445546956586
19	16565	67	1.6362226447506
19	17045	68	2.096714827559
19	17526	69	2.2555743425322
19	18007	70	2.1482652379368
19	18507	71	1.9194912088098
19	19008	72	2.1463276308042
19	19509	73	1.9159241804067
19	20030	74	2.1716810577018
19	20551	75	1.9372331757794
19	21072	76	2.0714211235731
19	21612	77	1.7497841862042
19	22153	78	0.973
19	22694	79	0.973
19	23254	80	0.973
19	23815	81	0.973
19	24376	82	0.973
19	24956	83	0.973
19	25537	84	0.973
20	869	13	2414.9020294819
20	989	14	2414.9020294819
20	1110	15	2411.9226306152
20	1231	16	2407.1557433844
20	1371	17	2402.1104710221
20	1512	18	2395.7699587477
20	1653	19	2388.0304223568
20	1813	20	2379.4738079484
20	1974	21	2370.893774931
20	2135	22	2362.3077945379
20	2315	23	2353.7435980395
20	2496	24	2345.1609503828
20	2677	25	2337.382531011
20	2877	26	2333.9513923901
20	3078	27	2339.5342791209
20	3279	28	2348.8453277851
20	3499	29	2357.9087556405
20	3720	30	2368.8976739903
20	3941	31	2380.9775286298
20	4181	32	2393.1030453129
20	4422	33	2405.2335576123
20	4663	34	2416.5418459401
20	4923	35	2423.9663700609
20	5184	36	2430.570008137
20	5445	37	2432.1000471369
20	5725	38	2433.9002697327
20	6006	39	2435.9543662666
20	6287	40	2437.9596728822
20	6587	41	2438.9494181712
20	6888	42	2439.9070256213
20	7189	43	2440.9176562928
20	7509	44	2441.9269052453
20	7830	45	2442.9366141059
20	8151	46	2443.9464281293
20	8491	47	2444.9573541252
20	8832	48	2445.9691156872
20	9173	49	2446.979716951
20	9533	50	2447.9896090399
20	9894	51	2448.9998733379
20	10255	52	2450.0085675253
20	10635	53	2450.2645866362
20	11016	54	2449.1499465979
20	11397	55	2448.0369973981
20	11797	56	2446.9233345203
20	12198	57	2445.8120863364
20	12599	58	2444.7009855164
20	13019	59	2443.5879624323
20	13440	60	2442.4739204658
20	13861	61	2441.3600381962
20	14301	62	2440.2864050268
20	14742	63	2439.3445139695
20	15183	64	2438.5901630576
20	15643	65	2436.8932832642
20	16104	66	2429.488703159
20	16565	67	2417.5025738811
20	17045	68	2403.9129781366
20	17526	69	2389.9861979192
20	18007	70	2376.0739265668
20	18507	71	2362.1500415469
20	19008	72	2348.2060115275
20	19509	73	2334.2734054149
20	20030	74	2320.3213743683
20	20551	75	2306.390282625
20	21072	76	2292.4858088302
20	21612	77	2278.5482186148
20	22153	78	2264.6132597643
20	22694	79	2250.6824459058
20	23254	80	2236.8438325393
20	23815	81	2223.0330148104
20	24376	82	2209.5218306775
20	24956	83	2196.3177326269
20	25537	84	2183.693116775
21	869	13	1578.4413889889
21	989	14	1578.4413889889
21	1110	15	1579.5354087027
21	1231	16	1581.5597135043
21	1371	17	1586.6698793434
21	1512	18	1593.0919447746
21	1653	19	1600.9310288979
21	1813	20	1609.5977004888
21	1974	21	1618.2880919036
21	2135	22	1626.984507191
21	2315	23	1635.6588583943
21	2496	24	1644.3518980779
21	2677	25	1653.7452424029
21	2877	26	1665.1186078088
21	3078	27	1675.0684384657
21	3279	28	1682.929411401
21	3499	29	1691.1030376544
21	3720	30	1695.1540113101
21	3941	31	1696.8415124407
21	4181	32	1698.123416462
21	4422	33	1699.2704374064
21	4663	34	1700.3397115832
21	4923	35	1700.9751795586
21	5184	36	1703.8619754324
21	5445	37	1713.6420474732
21	5725	38	1725.4884275207
21	6006	39	1739.0054271705
21	6287	40	1752.7795728892
21	6587	41	1766.6691963989
21	6888	42	1780.5653979182
21	7189	43	1794.4635625677
21	7509	44	1808.342725859
21	7830	45	1822.2282137927
21	8151	46	1836.1151479203
21	8491	47	1850.0173738636
21	8832	48	1863.9310904881
21	9173	49	1877.8288507257
21	9533	50	1891.7168584093
21	9894	51	1905.6099847034
21	10255	52	1919.4815188777
21	10635	53	1933.3752725068
21	11016	54	1947.287428339
21	11397	55	1961.1784803104
21	11797	56	1975.07843991
21	12198	57	1988.9482609928
21	12599	58	2002.8162427824
21	13019	59	2016.7082169261
21	13440	60	2030.6129080458
21	13861	61	2044.5156059386
21	14301	62	2058.405807049
21	14742	63	2072.3219886608
21	15183	64	2086.2172475774
21	15643	65	2100.0155986995
21	16104	66	2111.7128415443
21	16565	67	2118.6569472738
21	17045	68	2120.7883864809
21	17526	69	2120.3179975469
21	18007	70	2119.8480986627
21	18507	71	2119.3778075166
21	19008	72	2118.9068359565
21	19509	73	2118.436250248
21	20030	74	2117.965008446
21	20551	75	2117.4944738867
21	21072	76	2117.0248383721
21	21612	77	2116.5540843215
21	22153	78	2116.0834191469
21	22694	79	2115.6128939744
21	23254	80	2114.0115623279
21	23815	81	2112.0530816279
21	24376	82	2108.8527319925
21	24956	83	2104.3745167274
21	25537	84	2100.0928348433
22	989	14	4.1202440707026
22	1110	15	6.098204819389
22	1231	16	7.9892263333931
22	1371	17	9.9395148638858
22	1512	18	11.888312638128
22	1653	19	12.215156767303
22	1813	20	12.204687935296
22	1974	21	12.224623291104
22	2135	22	12.210776680999
22	2315	23	12.179672799767
22	2496	24	12.160016026092
22	2677	25	12.139849843977
22	2877	26	12.143721937142
22	3078	27	12.197962211408
22	3279	28	12.182525644068
22	3499	29	12.239106989266
22	3720	30	12.235862109773
22	3941	31	12.230306803957
22	4181	32	12.179537976573
22	4422	33	9.6862829881538
22	4663	34	6.6424673210172
22	4923	35	8.8478549035121
22	5184	36	10.859035527671
22	5445	37	12.909402498856
22	5725	38	13.992245385351
22	6006	39	13.943547738914
22	6287	40	13.916770352069
22	6587	41	13.945535122917
22	6888	42	13.906703865982
22	7189	43	13.929781103753
22	7509	44	13.945612282939
22	7830	45	13.915959525181
22	8151	46	13.967522231955
22	8491	47	13.972525620006
22	8832	48	13.883536923684
22	9173	49	13.909812615521
22	9533	50	13.926507747294
22	9894	51	13.897951097498
22	10255	52	13.93396450304
22	10635	53	13.967009024217
22	11016	54	13.893721483571
22	11397	55	13.88568516843
22	11797	56	13.927406547926
22	12198	57	13.918185825639
22	12599	58	13.942741125419
22	13019	59	13.888825567171
22	13440	60	13.956811681101
22	13861	61	13.967852384013
22	14301	62	13.917130999181
22	14742	63	13.962056111419
22	15183	64	13.973261172024
22	15643	65	13.976665152721
22	16104	66	13.929094264333
22	16565	67	13.988442988638
22	17045	68	13.963501574658
22	17526	69	13.904512311171
22	18007	70	13.881385968712
22	18507	71	13.955823229789
22	19008	72	13.91319160128
22	19509	73	13.978148939102
22	20030	74	13.952216081487
22	20551	75	13.876740762778
22	21072	76	13.930089543043
22	21612	77	13.916144249656
22	22153	78	13.998410794288
22	22694	79	13.980069159993
22	23254	80	13.95930730181
22	23815	81	13.968128457202
22	24376	82	13.906429463343
22	24956	83	12.184502506689
22	25537	84	9.3192249987393
23	1110	15	1.9779607486865
23	1231	16	1.8910215140041
23	1371	17	1.9502885304927
23	1512	18	1.9487977742427
23	1653	19	0.32684412917498
23	1813	20	-0.010468832007609
23	1974	21	0.019935355808121
23	2135	22	-0.013846610104666
23	2315	23	-0.031103881231974
23	2496	24	-0.019656773675234
23	2677	25	-0.020166182115208
23	2877	26	0.0038720931648282
23	3078	27	0.054240274266339
23	3279	28	-0.015436567340512
23	3499	29	0.056581345198211
23	3720	30	-0.0032448794925592
23	3941	31	-0.0055553058162339
23	4181	32	-0.050768827383871
23	4422	33	-2.4932549884193
23	4663	34	-3.0438156671366
23	4923	35	2.2053875824949
23	5184	36	2.0111806241586
23	5445	37	2.0503669711854
23	5725	38	1.082842886495
23	6006	39	-0.048697646437214
23	6287	40	-0.026777386844623
23	6587	41	0.028764770848211
23	6888	42	-0.038831256935373
23	7189	43	0.023077237771357
23	7509	44	0.015831179185771
23	7830	45	-0.02965275775874
23	8151	46	0.051562706774567
23	8491	47	0.0050033880514082
23	8832	48	-0.088988696322776
23	9173	49	0.026275691837073
23	9533	50	0.016695131773595
23	9894	51	-0.028556649796665
23	10255	52	0.036013405541889
23	10635	53	0.033044521177652
23	11016	54	-0.07328754064627
23	11397	55	-0.0080363151407798
23	11797	56	0.041721379496158
23	12198	57	-0.009220722287429
23	12599	58	0.024555299780332
23	13019	59	-0.053915558247827
23	13440	60	0.067986113929656
23	13861	61	0.01104070291156
23	14301	62	-0.050721384831705
23	14742	63	0.044925112237689
23	15183	64	0.011205060605425
23	15643	65	0.0034039806970405
23	16104	66	-0.047570888388437
23	16565	67	0.059348724305165
23	17045	68	-0.024941413979978
23	17526	69	-0.058989263486584
23	18007	70	-0.023126342459582
23	18507	71	0.07443726107711
23	19008	72	-0.042631628508678
23	19509	73	0.064957337821832
23	20030	74	-0.025932857615407
23	20551	75	-0.075475318708923
23	21072	76	0.053348780265079
23	21612	77	-0.013945293386932
23	22153	78	0.082266544632148
23	22694	79	-0.018341634294485
23	23254	80	-0.02076185818296
23	23815	81	0.0088211553916349
23	24376	82	-0.061698993858881
23	24956	83	-1.7219269566543
23	25537	84	-2.8652775079497
24	1110	15	4.3320714987557
24	1231	16	5.183486961616
24	1371	17	6.3519610936481
24	1512	18	7.4221751260776
24	1653	19	2.8298121443499
24	1813	20	1.8359013100526
24	1974	21	1.9272118037584
24	2135	22	1.8264910266966
24	2315	23	1.7731570813911
24	2496	24	1.8050958468359
24	2677	25	1.8019031629654
24	2877	26	1.8725806391293
24	3078	27	2.0255422754474
24	3279	28	1.8193896864997
24	3499	29	2.0366725650512
24	3720	30	1.8599189826534
24	3941	31	1.8526149529095
24	4181	32	1.7154241454235
24	4422	33	0.973
24	4663	34	0.973
24	4923	35	6.303427561984
24	5184	36	7.0154445701984
24	5445	37	8.3105242583869
24	5725	38	5.6895407911334
24	6006	39	1.8694269918782
24	6287	40	1.940528745875
24	6587	41	2.1299480592744
24	6888	42	1.8991694406835
24	7189	43	2.1091372507868
24	7509	44	2.0864880630902
24	7830	45	1.9308080812489
24	8151	46	2.2090898398184
24	8491	47	2.0528811368149
24	8832	48	1.7292056532406
24	9173	49	2.1177127068995
24	9533	50	2.0873649665686
24	9894	51	1.9327741224938
24	10255	52	2.1530281120875
24	10635	53	2.1466978352857
24	11016	54	1.7825965253946
24	11397	55	2.0002810933209
24	11797	56	2.1714609797662
24	12198	57	1.999553894506
24	12599	58	2.1154986829051
24	13019	59	1.8470270282863
24	13440	60	2.2631030576132
24	13861	61	2.0727204260443
24	14301	62	1.8602543209442
24	14742	63	2.1861282607859
24	15183	64	2.0738417857687
24	15643	65	2.0479224526271
24	16104	66	1.8719038420292
24	16565	67	2.237740187174
24	17045	68	1.9511766336835
24	17526	69	1.8314175593046
24	18007	70	1.9493699794006
24	18507	71	2.2846833100323
24	19008	72	1.8870266347629
24	19509	73	2.2554324657204
24	20030	74	1.9467570144346
24	20551	75	1.7738534084078
24	21072	76	2.2107965887972
24	21612	77	1.9835051352325
24	22153	78	2.3162204831367
24	22694	79	1.9750085314323
24	23254	80	1.9648337724802
24	23815	81	2.0652777009624
24	24376	82	1.8225039990261
24	24956	83	0.973
24	25537	84	0.973
25	1231	16	2414.866372544
25	1371	17	2414.866372544
25	1512	18	2411.9174920589
25	1653	19	2407.1873548935
25	1813	20	2402.1033929951
25	1974	21	2395.6770685576
25	2135	22	2387.9239549194
25	2315	23	2378.7440047435
25	2496	24	2368.9560721758
25	2677	25	2359.1622850237
25	2877	26	2349.3790714815
25	3078	27	2340.0066479368
25	3279	28	2334.2982135796
25	3499	29	2338.9199148722
25	3720	30	2349.5394145362
25	3941	31	2359.6285321664
25	4181	32	2372.2737052037
25	4422	33	2385.1868441795
25	4663	34	2397.5486702835
25	4923	35	2407.0889696613
25	5184	36	2415.9658388555
25	5445	37	2423.647086352
25	5725	38	2430.5697055
25	6006	39	2432.1309365664
25	6287	40	2433.9420996767
25	6587	41	2436.0121670167
25	6888	42	2438.0026650226
25	7189	43	2438.973087457
25	7509	44	2439.9357083738
25	7830	45	2440.9457836029
25	8151	46	2441.9557050534
25	8491	47	2442.966328533
25	8832	48	2443.9770825638
25	9173	49	2444.9875938372
25	9533	50	2445.9973880129
25	9894	51	2447.0079984484
25	10255	52	2448.0195114657
25	10635	53	2449.0300190145
25	11016	54	2450.0409876643
25	11397	55	2450.2291497608
25	11797	56	2449.1158151244
25	12198	57	2448.0031307412
25	12599	58	2446.8896077783
25	13019	59	2445.7771886681
25	13440	60	2444.6627922727
25	13861	61	2443.5487240007
25	14301	62	2442.4356510476
25	14742	63	2441.3226709429
25	15183	64	2440.2525785718
25	15643	65	2439.3108728111
25	16104	66	2438.5962522177
25	16565	67	2436.7990822749
25	17045	68	2429.1662416559
25	17526	69	2417.0518166292
25	18007	70	2403.4340603166
25	18507	71	2389.5047204611
25	19008	72	2375.5916553084
25	19509	73	2361.6469742537
25	20030	74	2347.7140670773
25	20551	75	2333.8022433744
25	21072	76	2319.8734200448
25	21612	77	2305.9398448825
25	22153	78	2292.0082472251
25	22694	79	2278.0813544713
25	23254	80	2264.1467494853
25	23815	81	2250.2047425436
25	24376	82	2236.387523783
25	24956	83	2222.5732599339
25	25537	84	2209.0995266479
26	1231	16	1578.4544820301
26	1371	17	1578.4544820301
26	1512	18	1579.5372955538
26	1653	19	1581.5276954006
26	1813	20	1586.6770484103
26	1974	21	1593.1860297397
26	2135	22	1601.0388657451
26	2315	23	1610.3368905932
26	2496	24	1620.2507178467
26	2677	25	1630.1704749865
26	2877	26	1640.0795225166
26	3078	27	1650.3859643145
26	3279	28	1662.6340421
26	3499	29	1674.572302388
26	3720	30	1683.5553562185
26	3941	31	1692.6539752008
26	4181	32	1695.658621354
26	4422	33	1697.3425149294
26	4663	34	1698.5437799906
26	4923	35	1699.4458790058
26	5184	36	1700.285246267
26	5445	37	1700.9566909699
26	5725	38	1703.861074903
26	6006	39	1713.8453156259
26	6287	40	1725.7636898225
26	6587	41	1739.3857854959
26	6888	42	1753.170717068
26	7189	43	1767.0707531869
26	7509	44	1780.9598423252
26	7830	45	1794.8503685482
26	8151	46	1808.7387800114
26	8491	47	1822.6368457591
26	8832	48	1836.5367068434
26	9173	49	1850.4332295349
26	9533	50	1864.3198907189
26	9894	51	1878.2177770855
26	10255	52	1892.128075731
26	10635	53	1906.0245472016
26	11016	54	1919.9273597188
26	11397	55	1933.8175707525
26	11797	56	1947.7134334734
26	12198	57	1961.6011801884
26	12599	58	1975.4993934687
26	13019	59	1989.3838292314
26	13440	60	2003.2929440839
26	13861	61	2017.1979635302
26	14301	62	2031.0905601038
26	14742	63	2044.9819978084
26	15183	64	2058.9055836303
26	15643	65	2072.8190275338
26	16104	66	2086.7368559008
26	16565	67	2100.5148639437
26	17045	68	2112.1094423961
26	17526	69	2118.8584406646
26	18007	70	2120.7722106203
26	18507	71	2120.3017352335
26	19008	72	2119.8318095375
26	19509	73	2119.3608159879
26	20030	74	2118.8902201112
26	20551	75	2118.4203363461
26	21072	76	2117.9498784048
26	21612	77	2117.4792599659
26	22153	78	2117.0087083196
26	22694	79	2116.5383155849
26	23254	80	2116.0676623629
26	23815	81	2115.596759134
26	24376	82	2113.9468542188
26	24956	83	2111.9878848325
26	25537	84	2108.709506128
27	1371	17	4.11254450365
27	1512	18	6.0975231633921
27	1653	19	8.1241239797909
27	1813	20	10.018434339895
27	1974	21	11.94044197294
27	2135	22	13.966010854098
27	2315	23	13.99429374554
27	2496	24	13.992908905046
27	2677	25	13.889738958394
27	2877	26	13.996094578244
27	3078	27	13.943261206169
27	3279	28	13.961094655516
27	3499	29	13.829256838197
27	3720	30	13.436515939642
27	3941	31	13.16217219069
27	4181	32	12.955925744517
27	4422	33	11.26758099839
27	4663	34	8.5044873526649
27	4923	35	9.3420117710427
27	5184	36	6.9079266154914
27	5445	37	9.1319836530982
27	5725	38	10.970689421588
27	6006	39	12.982363875891
27	6287	40	13.992697958478
27	6587	41	13.936582251703
27	6888	42	13.977668084782
27	7189	43	13.986179260183
27	7509	44	13.884867181559
27	7830	45	13.927137885792
27	8151	46	13.910710662541
27	8491	47	13.909766360957
27	8832	48	13.940070941378
27	9173	49	13.877076953631
27	9533	50	13.90827997843
27	9894	51	13.954862964205
27	10255	52	13.893197995736
27	10635	53	13.963183217549
27	11016	54	13.948198468271
27	11397	55	13.944161438567
27	11797	56	13.928642164022
27	12198	57	13.919632288448
27	12599	58	13.893341971666
27	13019	59	13.941880325
27	13440	60	13.998108282317
27	13861	61	13.878701872779
27	14301	62	13.982008344322
27	14742	63	13.95228849458
27	15183	64	13.945977008874
27	15643	65	13.898765254379
27	16104	66	13.884750159571
27	16565	67	13.956998247474
27	17045	68	13.973321173731
27	17526	69	13.980317651937
27	18007	70	13.967857702158
27	18507	71	13.87017407299
27	19008	72	13.907431576322
27	19509	73	13.990516319459
27	20030	74	13.891874899538
27	20551	75	13.937335884271
27	21072	76	13.921820710613
27	21612	77	13.947281930207
27	22153	78	13.958241502543
27	22694	79	13.924777132559
27	23254	80	13.993273811741
27	23815	81	13.884921522941
27	24376	82	13.976582028877
27	24956	83	13.956678922002
27	25537	84	12.428079281867
28	1512	18	1.984978659742
28	1653	19	2.0266008163989
28	1813	20	1.8943103601038
28	1974	21	1.9220076330448
28	2135	22	2.0255688811579
28	2315	23	0.028282891442068
28	2496	24	-0.0013848404935555
28	2677	25	-0.10316994665191
28	2877	26	0.10635561984964
28	3078	27	-0.05283337207511
28	3279	28	0.017833449346945
28	3499	29	-0.13183781731896
28	3720	30	-0.39274089855419
28	3941	31	-0.27434374895275
28	4181	32	-0.20624644617294
28	4422	33	-1.6883447461266
28	4663	34	-2.7630936457253
28	4923	35	0.83752441837784
28	5184	36	-2.4340851555514
28	5445	37	2.2240570376068
28	5725	38	1.8387057684897
28	6006	39	2.011674454303
28	6287	40	1.0103340825873
28	6587	41	-0.056115706774872
28	6888	42	0.041085833078251
28	7189	43	0.0085111754015088
28	7509	44	-0.10131207862403
28	7830	45	0.042270704233088
28	8151	46	-0.016427223251666
28	8491	47	-0.00094430158380554
28	8832	48	0.030304580421653
28	9173	49	-0.062993987747468
28	9533	50	0.031203024799471
28	9894	51	0.046582985774148
28	10255	52	-0.061664968468248
28	10635	53	0.069985221812967
28	11016	54	-0.01498474927852
28	11397	55	-0.0040370297036123
28	11797	56	-0.015519274545367
28	12198	57	-0.0090098755736836
28	12599	58	-0.026290316781962
28	13019	59	0.048538353333717
28	13440	60	0.056227957317605
28	13861	61	-0.11940640953835
28	14301	62	0.10330647154246
28	14742	63	-0.029719849741086
28	15183	64	-0.0063114857068296
28	15643	65	-0.047211754494347
28	16104	66	-0.014015094807837
28	16565	67	0.072248087902555
28	17045	68	0.016322926257271
28	17526	69	0.0069964782055472
28	18007	70	-0.01245994977886
28	18507	71	-0.097683629167731
28	19008	72	0.03725750333164
28	19509	73	0.083084743137006
28	20030	74	-0.098641419920606
28	20551	75	0.04546098473249
28	21072	76	-0.015515173657331
28	21612	77	0.025461219593417
28	22153	78	0.010959572335704
28	22694	79	-0.033464369983411
28	23254	80	0.068496679181699
28	23815	81	-0.10835228879936
28	24376	82	0.091660505936016
28	24956	83	-0.019903106875718
28	25537	84	-1.5285996401343
29	1512	18	4.3420194955082
29	1653	19	5.5193514834883
29	1813	20	6.2598837528783
29	1974	21	7.3741311479677
29	2135	22	8.8530434321966
29	2315	23	2.13365012742
29	2496	24	2.0334505025289
29	2677	25	1.6822325806597
29	2877	26	2.3971909293526
29	3078	27	1.855503707612
29	3279	28	2.0948662776171
29	3499	29	1.5820533004124
29	3720	30	0.973
29	3941	31	0.973
29	4181	32	1.2919135943652
29	4422	33	0.973
29	4663	34	0.973
29	4923	35	3.5215990826384
29	5184	36	0.973
29	5445	37	6.5156001891765
29	5725	38	6.6226227280211
29	6006	39	8.2324265791826
29	6287	40	5.4451881818867
29	6587	41	1.8438824401449
29	6888	42	2.1749617238466
29	7189	43	2.0661193061513
29	7509	44	1.6880752085194
29	7830	45	2.1732746516206
29	8151	46	1.9746491499881
29	8491	47	2.0264593789898
29	8832	48	2.1345252785117
29	9173	49	1.8156237109116
29	9533	50	2.1340627994298
29	9894	51	2.1908906066732
29	10255	52	1.8214679161102
29	10635	53	2.2705861872936
29	11016	54	1.9831738713403
29	11397	55	2.0195663816392
29	11797	56	1.9794538530861
29	12198	57	2.0004054330977
29	12599	58	1.93992520771
29	13019	59	2.1959885866008
29	13440	60	2.2283411417848
29	13861	61	1.6270777435242
29	14301	62	2.3851117990842
29	14742	63	1.9340301948742
29	15183	64	2.0121056433488
29	15643	65	1.8703641945081
29	16104	66	1.9801814994952
29	16565	67	2.277460917713
29	17045	68	2.0910828619716
29	17526	69	2.0604034814904
29	18007	70	1.9936118250746
29	18507	71	1.6990698160563
29	19008	72	2.1542627543164
29	19509	73	2.3180133884777
29	20030	74	1.6975579736318
29	20551	75	2.185134912585
29	21072	76	1.9787974726638
29	21612	77	2.1190343839391
29	22153	78	2.071439007203
29	22694	79	1.9188526777571
29	23254	80	2.2691547542171
29	23815	81	1.6645209900012
29	24376	82	2.3451932944867
29	24956	83	1.9674666771295
29	25537	84	0.973
30	1653	19	2414.8588002162
30	1813	20	2414.8588002162
30	1974	21	2411.8128147094
30	2135	22	2407.1980394585
30	2315	23	2402.4260893827
30	2496	24	2396.4703598532
30	2677	25	2389.2222769874
30	2877	26	2380.6475507468
30	3078	27	2371.4675885644
30	3279	28	2362.2853867376
30	3499	29	2353.1014532228
30	3720	30	2343.9167522368
30	3941	31	2335.7592630242
30	4181	32	2334.0763715116
30	4422	33	2342.9457734847
30	4663	34	2352.7630564623
30	4923	35	2362.8963906621
30	5184	36	2375.8179889829
30	5445	37	2388.7877361589
30	5725	38	2401.7727345998
30	6006	39	2414.1003036475
30	6287	40	2422.4116629731
30	6587	41	2429.7483392076
30	6888	42	2431.8187159494
30	7189	43	2433.5863239734
30	7509	44	2435.6333255254
30	7830	45	2437.7251014278
30	8151	46	2438.8311097387
30	8491	47	2439.7530554269
30	8832	48	2440.7623816305
30	9173	49	2441.7733011593
30	9533	50	2442.7835379966
30	9894	51	2443.7947770543
30	10255	52	2444.8051972518
30	10635	53	2445.8169310748
30	11016	54	2446.8271123795
30	11397	55	2447.8372403309
30	11797	56	2448.8468136862
30	12198	57	2449.85968903
30	12599	58	2450.4280289282
30	13019	59	2449.3144754737
30	13440	60	2448.1991392631
30	13861	61	2447.0859020924
30	14301	62	2445.9733171484
30	14742	63	2444.8601511701
30	15183	64	2443.7485429292
30	15643	65	2442.6356549449
30	16104	66	2441.5218806025
30	16565	67	2440.4231678097
30	17045	68	2439.4804845047
30	17526	69	2438.6159434677
30	18007	70	2437.2669850449
30	18507	71	2430.7552516428
30	19008	72	2419.3404297139
30	19509	73	2405.9348433106
30	20030	74	2392.0194124001
30	20551	75	2378.1011852593
30	21072	76	2364.1953779339
30	21612	77	2350.2886800821
30	22153	78	2336.3561129614
30	22694	79	2322.4562056735
30	23254	80	2308.5250294865
30	23815	81	2294.5961415229
30	24376	82	2280.6805873379
30	24956	83	2266.7584311436
30	25537	84	2252.8414253348
31	1653	19	1578.4572625495
31	1813	20	1578.4572625495
31	1974	21	1579.5757325301
31	2135	22	1581.5168734081
31	2315	23	1586.3502014261
31	2496	24	1592.3825349454
31	2677	25	1599.723844354
31	2877	26	1608.4088607347
31	3078	27	1617.7068977449
31	3279	28	1627.0072032055
31	3499	29	1636.3092626277
31	3720	30	1645.6120993933
31	3941	31	1655.8232780742
31	4181	32	1668.6061278731
31	4422	33	1677.8234253228
31	4663	34	1686.4625172503
31	4923	35	1694.2570089856
31	5184	36	1696.1883798428
31	5445	37	1697.7153751645
31	5725	38	1698.9431934794
31	6006	39	1700.1088474551
31	6287	40	1700.8851519767
31	6587	41	1702.3337102309
31	6888	42	1711.7907452099
31	7189	43	1723.4225047911
31	7509	44	1736.8928158525
31	7830	45	1750.6577649042
31	8151	46	1764.5359474756
31	8491	47	1778.4480041219
31	8832	48	1792.3282297663
31	9173	49	1806.2303667758
31	9533	50	1820.1231154287
31	9894	51	1834.0296465904
31	10255	52	1847.9249168085
31	10635	53	1861.8382519679
31	11016	54	1875.7302369392
31	11397	55	1889.6214881958
31	11797	56	1903.5051126648
31	12198	57	1917.4341459852
31	12599	58	1931.3353003571
31	13019	59	1945.2338942112
31	13440	60	1959.1547391778
31	13861	61	1973.0493854005
31	14301	62	1986.9358909866
31	14742	63	2000.8296486354
31	15183	64	2014.703963697
31	15643	65	2028.5942516169
31	16104	66	2042.495602442
31	16565	67	2056.3851745035
31	17045	68	2070.3130613565
31	17526	69	2084.1962146899
31	18007	70	2098.0349792624
31	18507	71	2110.155092163
31	19008	72	2117.83540574
31	19509	73	2120.8566767089
31	20030	74	2120.3866711082
31	20551	75	2119.9165710621
31	21072	76	2119.446890506
31	21612	77	2118.9771798709
31	22153	78	2118.5065954803
31	22694	79	2118.037114202
31	23254	80	2117.566576791
31	23815	81	2117.0961166667
31	24376	82	2116.626106902
31	24956	83	2116.1558741489
31	25537	84	2115.6858153539
32	1813	20	4.067372106413
32	1974	21	5.8844240154271
32	2135	22	7.537838140674
32	2315	23	9.3614518548586
32	2496	24	11.131813735405
32	2677	25	13.055222753974
32	2877	26	13.056929057404
32	3078	27	13.088935566079
32	3279	28	13.097759776963
32	3499	29	13.007092833967
32	3720	30	13.085117228884
32	3941	31	13.080600649864
32	4181	32	13.117051406159
32	4422	33	13.130705420296
32	4663	34	13.076950958216
32	4923	35	13.090002827352
32	5184	36	13.033971088322
32	5445	37	13.019674586834
32	5725	38	10.823429693182
32	6006	39	6.3234296931819
32	6287	40	8.6041157709741
32	6587	41	10.729878066311
32	6888	42	12.674055236164
32	7189	43	13.986021694564
32	7509	44	13.889535133126
32	7830	45	13.959654321973
32	8151	46	13.972242008243
32	8491	47	13.884239303807
32	8832	48	13.920426942427
32	9173	49	13.887057281358
32	9533	50	13.924890077722
32	9894	51	13.888422596853
32	10255	52	13.973124842362
32	10635	53	13.979389482583
32	11016	54	13.907495470522
32	11397	55	13.981073234761
32	11797	56	13.968595914519
32	12198	57	13.977168370693
32	12599	58	13.911225638806
32	13019	59	13.97115611963
32	13440	60	13.928424248584
32	13861	61	13.93642065672
32	14301	62	13.982039187397
32	14742	63	13.971991834943
32	15183	64	13.958216204653
32	15643	65	13.965484043353
32	16104	66	13.949256250246
32	16565	67	13.91837227551
32	17045	68	13.892609307456
32	17526	69	13.98260364667
32	18007	70	13.9460709692
32	18507	71	13.96612499878
32	19008	72	13.92864668397
32	19509	73	13.95173190474
32	20030	74	13.918730210701
32	20551	75	13.915672578188
32	21072	76	13.927561233426
32	21612	77	13.993053698211
32	22153	78	13.911409898638
32	22694	79	13.903231616907
32	23254	80	13.988286828815
32	23815	81	13.977607483284
32	24376	82	13.890778108125
32	24956	83	13.912375226845
32	25537	84	13.984686729049
33	1974	21	1.8170519090141
33	2135	22	1.6534141252469
33	2315	23	1.8236137141846
33	2496	24	1.770361880546
33	2677	25	1.9234090185692
33	2877	26	0.0017063034302556
33	3078	27	0.032006508675405
33	3279	28	0.0088242108840486
33	3499	29	-0.090666942996904
33	3720	30	0.078024394917302
33	3941	31	-0.0045165790198354
33	4181	32	0.036450756294652
33	4422	33	0.013654014137574
33	4663	34	-0.053754462080542
33	4923	35	0.013051869135817
33	5184	36	-0.056031739029569
33	5445	37	-0.014296501488424
33	5725	38	-2.1962448936517
33	6006	39	-4.5
33	6287	40	2.2806860777922
33	6587	41	2.1257622953365
33	6888	42	1.9441771698534
33	7189	43	1.3119664584004
33	7509	44	-0.09648656143807
33	7830	45	0.07011918884702
33	8151	46	0.012587686269544
33	8491	47	-0.088002704435493
33	8832	48	0.036187638619449
33	9173	49	-0.03336966106901
33	9533	50	0.037832796364091
33	9894	51	-0.036467480869032
33	10255	52	0.084702245509252
33	10635	53	0.0062646402209054
33	11016	54	-0.071894012060946
33	11397	55	0.073577764239161
33	11797	56	-0.012477320241741
33	12198	57	0.0085724561731322
33	12599	58	-0.065942731886171
33	13019	59	0.059930480823388
33	13440	60	-0.042731871046126
33	13861	61	0.0079964081360959
33	14301	62	0.045618530677165
33	14742	63	-0.010047352453695
33	15183	64	-0.013775630290619
33	15643	65	0.0072678387002085
33	16104	66	-0.016227793106809
33	16565	67	-0.030883974735625
33	17045	68	-0.025762968054043
33	17526	69	0.089994339214172
33	18007	70	-0.036532677470239
33	18507	71	0.020054029580205
33	19008	72	-0.037478314810432
33	19509	73	0.023085220770444
33	20030	74	-0.033001694038976
33	20551	75	-0.0030576325138085
33	21072	76	0.011888655237852
33	21612	77	0.06549246478593
33	22153	78	-0.081643799573648
33	22694	79	-0.0081782817305065
33	23254	80	0.085055211908184
33	23815	81	-0.01067934553139
33	24376	82	-0.086829375158995
33	24956	83	0.021597118719948
33	25537	84	0.07231150220381
34	1974	21	3.9895326670072
34	2135	22	4.516813990543
34	2315	23	5.7516577127992
34	2496	24	6.5238969694044
34	2677	25	7.9969762628647
34	2877	26	1.9508699439778
34	3078	27	2.049523008974
[...]
92	17526	69	10.229178914166
92	18007	70	10.209543194059
92	18507	71	10.172284092321
92	19008	72	10.048207842999
92	19509	73	10.116377217187
92	20030	74	10.010355223974
92	20551	75	10.045437803619
92	21072	76	8.4465252176095
92	21612	77	8.4410162230772
92	22153	78	6.4519680539834
92	22694	79	8.7816872320709
92	23254	80	10.600402019402
92	23815	81	12.699525483857
92	24376	82	12.912721348808
92	24956	83	12.62707362933
92	25537	84	12.514635113444
93	12198	57	2.0156824070984
93	12599	58	1.900072630432
93	13019	59	1.7398299445561
93	13440	60	2.0183269427763
93	13861	61	1.2074158360585
93	14301	62	-0.70156072131146
93	14742	63	-0.59657208614115
93	15183	64	-0.46315310278356
93	15643	65	-0.19137654587778
93	16104	66	-0.24745692664214
93	16565	67	-0.19718823742314
93	17045	68	-0.14767085635186
93	17526	69	-0.17719405097766
93	18007	70	-0.019635720107244
93	18507	71	-0.03725910173743
93	19008	72	-0.12407624932234
93	19509	73	0.068169374188708
93	20030	74	-0.10602199321338
93	20551	75	0.035082579645131
93	21072	76	-1.5989125860097
93	21612	77	-0.0055089945323896
93	22153	78	-1.9890481690938
93	22694	79	2.3297191780875
93	23254	80	1.8187147873314
93	23815	81	2.0991234644549
93	24376	82	0.21319586495079
93	24956	83	-0.28564771947791
93	25537	84	-0.1124385158857
94	12198	57	4.3807066726632
94	12599	58	5.1991080184596
94	13019	59	5.7420827504996
94	13440	60	7.5386032280172
94	13861	61	5.7041373063338
94	14301	62	0.973
94	14742	63	0.973
94	15183	64	0.973
94	15643	65	1.2562103313914
94	16104	66	0.973
94	16565	67	1.2261738355377
94	17045	68	1.3457592159019
94	17526	69	1.2655080649847
94	18007	70	1.6525033018792
94	18507	71	1.6066057691622
94	19008	72	1.3879816033852
94	19509	73	1.8598559681442
94	20030	74	1.4297881013981
94	20551	75	1.7731689671891
94	21072	76	0.973
94	21612	77	1.5615470750521
94	22153	78	0.973
94	22694	79	6.5267765144135
94	23254	80	6.3776656414914
94	23815	81	8.3363783621892
94	24376	82	2.5952639192684
94	24956	83	0.973
94	25537	84	1.5556503718517
95	12599	58	2414.8593783923
95	13019	59	2414.8593783923
95	13440	60	2411.9484889912
95	13861	61	2407.4094249712
95	14301	62	2402.6937210527
95	14742	63	2396.641597031
95	15183	64	2389.214746958
95	15643	65	2380.4731917271
95	16104	66	2371.3666080962
95	16565	67	2362.2568273076
95	17045	68	2353.1410784088
95	17526	69	2344.0207437314
95	18007	70	2335.9168898315
95	18507	71	2334.0024995889
95	19008	72	2341.8961523818
95	19509	73	2350.7113399879
95	20030	74	2359.0855340591
95	20551	75	2369.24865364
95	21072	76	2379.8366732474
95	21612	77	2390.0533914872
95	22153	78	2398.9411047139
95	22694	79	2407.7525111061
95	23254	80	2415.880312068
95	23815	81	2423.5398541616
95	24376	82	2430.5690994656
95	24956	83	2432.1724686521
95	25537	84	2434.0497161736
96	12599	58	1578.4570502462
96	13019	59	1578.4570502462
96	13440	60	1579.5259136427
96	13861	61	1581.3027690053
96	14301	62	1586.0791274142
96	14742	63	1592.209095275
96	15183	64	1599.7314712359
96	15643	65	1608.5854624016
96	16104	66	1617.8091770476
96	16565	67	1627.0361299738
96	17045	68	1636.2691277731
96	17526	69	1645.5067703351
96	18007	70	1655.6214912273
96	18507	71	1668.1375688212
96	19008	72	1676.9757931605
96	19509	73	1684.6122279437
96	20030	74	1692.1642859075
96	20551	75	1695.2064716825
96	21072	76	1696.7057251902
96	21612	77	1697.8350513279
96	22153	78	1698.6754439641
96	22694	79	1699.5086212801
96	23254	80	1700.2771591377
96	23815	81	1700.9504815331
96	24376	82	1703.8592715813
96	24956	83	1714.1186178681
96	25537	84	1726.4718610914
97	13019	59	3.8447639940612
97	13440	60	5.6791266903889
97	13861	61	7.640854550414
97	14301	62	9.4405025505742
97	14742	63	11.421963884828
97	15183	64	13.012270239909
97	15643	65	12.984371756279
97	16104	66	12.995853155312
97	16565	67	13.006837156665
97	17045	68	12.961017791257
97	17526	69	13.031157599441
97	18007	70	12.559074226099
97	18507	71	12.011778056626
97	19008	72	11.442599717387
97	19509	73	11.144327250079
97	20030	74	10.836430972894
97	20551	75	10.605546301912
97	21072	76	9.5563705982819
97	21612	77	9.0466518090707
97	22153	78	7.9197055946551
97	22694	79	8.7474608801222
97	23254	80	7.0086972943185
97	23815	81	9.2307973784445
97	24376	82	11.33899250808
97	24956	83	13.317439644286
97	25537	84	13.489648629711
98	13440	60	1.8343626963277
98	13861	61	1.9617278600251
98	14301	62	1.7996480001602
98	14742	63	1.9814613342541
98	15183	64	1.5903063550805
98	15643	65	-0.02789848363027
98	16104	66	0.011481399033219
98	16565	67	0.010984001352917
98	17045	68	-0.045819365407805
98	17526	69	0.070139808184468
98	18007	70	-0.47208337334238
98	18507	71	-0.54729616947349
98	19008	72	-0.56917833923897
98	19509	73	-0.29827246730796
98	20030	74	-0.30789627718443
98	20551	75	-0.23088467098222
98	21072	76	-1.04917570363
98	21612	77	-0.50971878921118
98	22153	78	-1.1269462144156
98	22694	79	0.82775528546711
98	23254	80	-1.7387635858037
98	23815	81	2.222100084126
98	24376	82	2.1081951296353
98	24956	83	1.9784471362061
98	25537	84	0.17220898542539
99	13440	60	3.911518067875
99	13861	61	5.1322202484559
99	14301	62	5.7376235105578
99	14742	63	7.2530068360154
99	15183	64	6.9283760980498
99	15643	65	1.8512905344394
99	16104	66	1.9756419443008
99	16565	67	1.9751575931238
99	17045	68	1.7932539805743
99	17526	69	2.1633169400727
99	18007	70	0.973
99	18507	71	0.973
99	19008	72	0.973
99	19509	73	0.973
99	20030	74	0.973
99	20551	75	0.973
99	21072	76	0.973
99	21612	77	0.973
99	22153	78	0.973
99	22694	79	3.3388327169313
99	23254	80	0.973
99	23815	81	6.5712859282952
99	24376	82	7.5527297407881
99	24956	83	8.3204552480567
99	25537	84	2.547357236701
100	13861	61	2414.8844513154
100	14301	62	2414.8844513154
100	14742	63	2411.952405891
100	15183	64	2407.1483753425
100	15643	65	2402.0327751596
100	16104	66	2395.5605150873
100	16565	67	2387.7034512246
100	17045	68	2378.4408955037
100	17526	69	2368.6464148381
100	18007	70	2358.85036586
100	18507	71	2349.0623008312
100	19008	72	2339.7408343487
100	19509	73	2334.2278371524
100	20030	74	2339.2625557089
100	20551	75	2349.4910571177
100	21072	76	2358.9042269117
100	21612	77	2370.0415060408
100	22153	78	2380.5743651568
100	22694	79	2390.6718106639
100	23254	80	2399.8656969293
100	23815	81	2408.6379168016
100	24376	82	2417.2194066041
100	24956	83	2424.4975534223
100	25537	84	2430.7423935193
101	13861	61	1578.4478435991
101	14301	62	1578.4478435991
101	14742	63	1579.5244753771
101	15183	64	1581.5671763159
101	15643	65	1586.7485745484
101	16104	66	1593.304082348
101	16565	67	1601.2622056101
101	17045	68	1610.6438984955
101	17526	69	1620.5643580696
101	18007	70	1630.4864061279
101	18507	71	1640.400367545
101	19008	72	1650.7262470797
101	19509	73	1663.0578762544
101	20030	74	1674.8490054691
101	20551	75	1683.5117462864
101	21072	76	1692.000778581
101	21612	77	1695.3249780769
101	22153	78	1696.7935269903
101	22694	79	1697.89352699
101	23254	80	1698.7628703322
101	23815	81	1699.5923423013
101	24376	82	1700.4037794685
101	24956	83	1701.0059385058
101	25537	84	1704.7079963367
102	14301	62	4.018615917157
102	14742	63	6.1678624366304
102	15183	64	8.1947875515009
102	15643	65	10.095725917275
102	16104	66	12.087148355938
102	16565	67	13.916756611222
102	17045	68	13.873082711415
102	17526	69	13.970749160051
102	18007	70	13.922085633471
102	18507	71	13.919626296114
102	19008	72	13.89674285165
102	19509	73	13.8748673278
102	20030	74	13.050387363084
102	20551	75	12.313109540106
102	21072	76	11.372147735548
102	21612	77	10.365966287683
102	22153	78	9.4953062928876
102	22694	79	9.4861117981816
102	23254	80	7.9931687686442
102	23815	81	9.1878188845829
102	24376	82	6.9895311099889
102	24956	83	9.094548749743
102	25537	84	11.030252739443
103	14742	63	2.1492465194734
103	15183	64	2.0269251148705
103	15643	65	1.9009383657738
103	16104	66	1.9914224386634
103	16565	67	1.8296082552838
103	17045	68	-0.043673899807034
103	17526	69	0.097666448636446
103	18007	70	-0.048663526580203
103	18507	71	-0.0024593373574326
103	19008	72	-0.022883444463368
103	19509	73	-0.021875523850614
103	20030	74	-0.82447996471606
103	20551	75	-0.73727782297787
103	21072	76	-0.94096180455795
103	21612	77	-1.0061814478651
103	22153	78	-0.87065999479512
103	22694	79	-0.0091944947059659
103	23254	80	-1.4929430295375
103	23815	81	1.1946501159387
103	24376	82	-2.198287774594
103	24956	83	2.1050176397541
103	25537	84	1.9357039897004
104	14742	63	4.6239714702746
104	15183	64	5.559217427776
104	15643	65	6.3171910975532
104	16104	66	7.6572369962964
104	16565	67	8.1667304192483
104	17045	68	1.8798735915629
104	17526	69	2.3646891363214
104	18007	70	1.867603388115
104	18507	71	2.0223794668753
104	19008	72	1.9516596977621
104	19509	73	1.9529264458677
104	20030	74	0.973
104	20551	75	0.973
104	21072	76	0.973
104	21612	77	0.973
104	22153	78	0.973
104	22694	79	1.6254464959265
104	23254	80	0.973
104	23815	81	4.2701405197745
104	24376	82	0.973
104	24956	83	6.2319587631773
104	25537	84	6.9117372759842
105	15183	64	2414.8420826617
105	15643	65	2414.8420826617
105	16104	66	2411.6921621242
105	16565	67	2406.8077182934
105	17045	68	2401.6811510426
105	17526	69	2395.3062389906
105	18007	70	2387.5620720242
105	18507	71	2378.9876058855
105	19008	72	2370.4015149698
105	19509	73	2361.816110178
105	20030	74	2353.2254117181
105	20551	75	2344.6311708436
105	21072	76	2336.9076843112
105	21612	77	2333.8926936223
105	22153	78	2340.2200407498
105	22694	79	2349.522631368
105	23254	80	2358.6080084353
105	23815	81	2369.8655446537
105	24376	82	2381.9576193939
105	24956	83	2394.1195587356
105	25537	84	2406.3064077778
106	15183	64	1578.4634011481
106	15643	65	1578.4634011481
106	16104	66	1579.6200355301
106	16565	67	1581.9122149758
106	17045	68	1587.1047213376
106	17526	69	1593.5616290038
106	18007	70	1601.4054032629
106	18507	71	1610.0901561966
106	19008	72	1618.7866834281
106	19509	73	1627.4825157104
106	20030	74	1636.183709749
106	20551	75	1644.8884917665
106	21072	76	1654.3531200849
106	21612	77	1665.9501736853
106	22153	78	1675.6222322211
106	22694	79	1683.5402207365
106	23254	80	1691.7336413395
106	23815	81	1695.2986774063
106	24376	82	1696.9581651138
106	24956	83	1698.2195345946
106	25537	84	1699.3718825541
107	15643	65	4.2842987557744
107	16104	66	6.3335589328256
107	16565	67	8.0892261283855
107	17045	68	9.909994260104
107	17526	69	11.839966300701
107	18007	70	12.266656966092
107	18507	71	12.295276953945
107	19008	72	12.238093200747
107	19509	73	12.208948951288
107	20030	74	12.283356812437
107	20551	75	12.271017379569
107	21072	76	12.177356552488
107	21612	77	12.250097024875
107	22153	78	12.189899781536
107	22694	79	12.216411735568
107	23254	80	12.24442244583
107	23815	81	12.176833894662
107	24376	82	12.227113323346
107	24956	83	12.233818625032
107	25537	84	9.2681343349676
108	16104	66	2.0492601770512
108	16565	67	1.7556671955599
108	17045	68	1.8207681317185
108	17526	69	1.9299720405973
108	18007	70	0.42669066539084
108	18507	71	0.028619987852872
108	19008	72	-0.057183753198478
108	19509	73	-0.029144249458332
108	20030	74	0.074407861148938
108	20551	75	-0.012339432868174
108	21072	76	-0.093660827081186
108	21612	77	0.072740472387522
108	22153	78	-0.060197243338916
108	22694	79	0.026511954031884
108	23254	80	0.028010710261297
108	23815	81	-0.067588551167864
108	24376	82	0.050279428684153
108	24956	83	0.0067053016857237
108	25537	84	-2.965684290064
109	16104	66	4.5669665819023
109	16565	67	4.9718018898546
109	17045	68	6.0265212158169
109	17526	69	7.3415326447534
109	18007	70	3.1336645143854
109	18507	71	1.9596366708659
109	19008	72	1.7010311945519
109	19509	73	1.781322330603
109	20030	74	2.0940258423692
109	20551	75	1.8361547731665
109	21072	76	1.5893789470923
109	21612	77	2.0855153956409
109	22153	78	1.6885250851001
109	22694	79	1.9457988937384
109	23254	80	1.9529129732982
109	23815	81	1.6658561967065
109	24376	82	2.0168629541678
109	24956	83	1.8890738486753
109	25537	84	0.973
110	16565	67	2414.8461773879
110	17045	68	2414.8461773879
110	17526	69	2411.8156173957
110	18007	70	2407.0654892415
110	18507	71	2401.9492347768
110	19008	72	2395.3429720888
110	19509	73	2387.2616390446
110	20030	74	2377.8896717046
110	20551	75	2368.132777152
110	21072	76	2358.352849392
110	21612	77	2348.5864132382
110	22153	78	2339.3564212093
110	22694	79	2334.1342350811
110	23254	80	2339.6713423185
110	23815	81	2350.2392751323
110	24376	82	2360.353480833
110	24956	83	2373.2728725324
110	25537	84	2386.2492387758
111	16565	67	1578.4618975855
111	17045	68	1578.4618975855
111	17526	69	1579.5747033991
111	18007	70	1581.6511285175
111	18507	71	1586.8331894474
111	19008	72	1593.5244234363
111	19509	73	1601.709700482
111	20030	74	1611.2022122648
111	20551	75	1621.0846022842
111	21072	76	1630.9903217694
111	21612	77	1640.8823761158
111	22153	78	1651.2183557283
111	22694	79	1663.6215842515
111	23254	80	1675.1791252401
111	23815	81	1684.1865080334
111	24376	82	1693.3077520663
111	24956	83	1695.8079653131
111	25537	84	1697.4689635951
112	17045	68	4.1832233416825
112	17526	69	6.094705743054
112	18007	70	8.2377684972995
112	18507	71	10.383634851228
112	19008	72	12.377837524719
112	19509	73	13.95514258502
112	20030	74	13.851584344874
112	20551	75	13.90825316288
112	21072	76	13.850232986188
112	21612	77	13.868391821445
112	22153	78	13.842565385092
112	22694	79	13.880377471799
112	23254	80	13.824036118681
112	23815	81	13.44125427326
112	24376	82	13.195892382637
112	24956	83	12.988348819491
112	25537	84	11.051899495583
113	17526	69	1.9114824013715
113	18007	70	2.1430627542455
113	18507	71	2.1458663539286
113	19008	72	1.9942026734911
113	19509	73	1.5773050603013
113	20030	74	-0.10355824014638
113	20551	75	0.056668818006292
113	21072	76	-0.058020176691935
113	21612	77	0.018158835256473
113	22153	78	-0.025826436353382
113	22694	79	0.03781208670698
113	23254	80	-0.056341353117922
113	23815	81	-0.38278184542026
113	24376	82	-0.24536189062374
113	24956	83	-0.20754356314608
113	25537	84	-1.9364493239075
114	17526	69	4.2325536946742
114	18007	70	5.8136589782112
114	18507	71	7.0842665770013
114	19008	72	7.8311198804753
114	19509	73	7.3390305246716
114	20030	74	1.6780100664083
114	20551	75	2.2194183790726
114	21072	76	1.8299085364327
114	21612	77	2.0861090205836
114	22153	78	1.9366386539141
114	22694	79	2.1531225624654
114	23254	80	1.833214196001
114	23815	81	0.973
114	24376	82	1.1785376743835
114	24956	83	1.289317924974
114	25537	84	0.973
115	18007	70	2414.8737180224
115	18507	71	2414.8737180224
115	19008	72	2411.8680781076
115	19509	73	2407.1568522488
115	20030	74	2402.2695560248
115	20551	75	2396.026197728
115	21072	76	2388.8156860289
115	21612	77	2381.5505374246
115	22153	78	2374.29244742
115	22694	79	2367.0056487003
115	23254	80	2359.7510255593
115	23815	81	2352.5099029642
115	24376	82	2345.2446918846
115	24956	83	2338.5956882177
115	25537	84	2334.510232391
116	18007	70	1578.4517848091
116	18507	71	1578.4517848091
116	19008	72	1579.555440099
116	19509	73	1581.5585903777
116	20030	74	1586.5087481523
116	20551	75	1592.8324099882
116	21072	76	1600.1356649809
116	21612	77	1607.4942596303
116	22153	78	1614.8457048917
116	22694	79	1622.2262281263
116	23254	80	1629.5741619319
116	23815	81	1636.9084215444
116	24376	82	1644.2670794735
116	24956	83	1652.19221236
116	25537	84	1661.3571825419
117	18507	71	4.0859593419879
117	19008	72	6.0045190997058
117	19509	73	7.8119547564685
117	20030	74	9.7132447450151
117	20551	75	10.305879691574
117	21072	76	10.360164749592
117	21612	77	10.362935353057
117	22153	78	10.312807143824
117	22694	79	10.375441872943
117	23254	80	10.299517820359
117	23815	81	10.312693880121
117	24376	82	10.402105987973
117	24956	83	10.374811264868
117	25537	84	10.33296438281
118	19008	72	1.9185597577179
118	19509	73	1.8074356567627
118	20030	74	1.9012899885466
118	20551	75	0.59263494655885
118	21072	76	0.054285058018287
118	21612	77	0.0027706034644499
118	22153	78	-0.050128209232353
118	22694	79	0.062634729119019
118	23254	80	-0.075924052584451
118	23815	81	0.013176059762481
118	24376	82	0.089412107851823
118	24956	83	-0.027294723105152
118	25537	84	-0.041846882058307
119	19008	72	4.1959838790125
119	19509	73	4.9337141016577
119	20030	74	6.1139389675705
119	20551	75	3.1802109976683
119	21072	76	1.8480374430506
119	21612	77	1.7196341081864
119	22153	78	1.5842237541346
119	22694	79	1.8703075779173
119	23254	80	1.5193220070009
119	23815	81	1.7415501691917
119	24376	82	1.9399222969325
119	24956	83	1.645395562495
119	25537	84	1.6061704388764
120	19509	73	2414.8769514603
120	20030	74	2414.8769514603
120	20551	75	2411.9119199329
120	21072	76	2407.298265514
120	21612	77	2402.4443862444
120	22153	78	2396.2601480235
120	22694	79	2388.6069567787
120	23254	80	2379.616833211
120	23815	81	2370.4989479294
120	24376	82	2361.4831209757
120	24956	83	2352.8745644127
120	25537	84	2344.584524505
121	19509	73	1578.4505975069
121	20030	74	1578.4505975069
121	20551	75	1579.5393416099
121	21072	76	1581.4153582221
121	21612	77	1586.3316692254
121	22153	78	1592.5954505689
121	22694	79	1600.3470789557
121	23254	80	1609.4528356018
121	23815	81	1618.6879972629
121	24376	82	1627.8197878981
121	24956	83	1636.5390697354
121	25537	84	1644.9357380811
122	20030	74	4.0735588402093
122	20551	75	5.8290612863471
122	21072	76	7.862662603839
122	21612	77	9.6879727271526
122	22153	78	11.944467225839
122	22694	79	12.953456134841
122	23254	80	12.998777343629
122	23815	81	12.605227840698
122	24376	82	12.014084930552
122	24956	83	11.584700541917
122	25537	84	11.358179795498
123	20551	75	1.7555024461378
123	21072	76	2.0336013174918
123	21612	77	1.8253101233137
123	22153	78	2.2564944986859
123	22694	79	1.0089889090025
123	23254	80	0.045321208788081
123	23815	81	-0.39354950293097
123	24376	82	-0.59114291014626
123	24956	83	-0.42938438863522
123	25537	84	-0.22652074641895
124	20551	75	3.8756268936732
124	21072	76	5.3876730590065
124	21612	77	5.9230829630863
124	22153	78	8.3392083846763
124	22694	79	5.0855033372062
124	23254	80	2.0819381521331
124	23815	81	0.973
124	24376	82	0.973
124	24956	83	0.973
124	25537	84	1.1732211916124
125	21072	76	2414.8732395561
125	21612	77	2414.8732395561
125	22153	78	2411.9082769358
125	22694	79	2407.1655617389
125	23254	80	2402.128447905
125	23815	81	2395.6944575682
125	24376	82	2387.9337748789
125	24956	83	2378.7673655167
125	25537	84	2368.9823548129
126	21072	76	1578.4519604994
126	21612	77	1578.4519604994
126	22153	78	1579.5406792993
126	22694	79	1581.5497688642
126	23254	80	1586.6516712382
126	23815	81	1593.1684170682
126	24376	82	1601.0289194789
126	24956	83	1610.3132293485
126	25537	84	1620.224097156
127	21612	77	4.0635240824116
127	22153	78	6.1144633837571
127	22694	79	8.1038544815257
127	23254	80	10.046968652414
127	23815	81	11.926067483762
127	24376	82	13.892129573808
127	24956	83	13.936045407304
127	25537	84	13.893183273086
128	22153	78	2.0509393013455
128	22694	79	1.9893910977687
128	23254	80	1.9431141708884
128	23815	81	1.8790988313477
128	24376	82	1.9660620900462
128	24956	83	0.043915833495557
128	25537	84	-0.042862134217286
129	22153	78	4.4483142439603
129	22694	79	5.4354323508198
129	23254	80	6.3932525708783
129	23815	81	7.2428843983977
129	24376	82	8.6102118406059
129	24956	83	2.1797995320176
129	25537	84	1.884423361701
130	22694	79	2414.8461739381
130	23254	80	2414.8461739381
130	23815	81	2411.9468780267
130	24376	82	2407.2557718946
130	24956	83	2402.3132644872
130	25537	84	2396.0984851476
131	22694	79	1578.4618988531
131	23254	80	1578.4618988531
131	23815	81	1579.5265051797
131	24376	82	1581.4583984045
131	24956	83	1586.4644775018
131	25537	84	1592.7591927908
132	23254	80	4.0267229073465
132	23815	81	5.9477333564631
132	24376	82	7.8212407105433
132	24956	83	9.6026732088782
132	25537	84	11.466286668062
133	23815	81	1.9210104491166
133	24376	82	1.8735073540802
133	24956	83	1.7814324983349
133	25537	84	1.8636134591838
134	23815	81	4.1699391246736
134	24376	82	5.0629039791787
134	24956	83	5.7777020757503
134	25537	84	6.9522613836103
135	24376	82	2414.8840517174
135	24956	83	2414.8840517174
135	25537	84	2412.0108083608
136	24376	82	1578.4479903299
136	24956	83	1578.4479903299
136	25537	84	1579.5030302955
137	24956	83	3.8169569386458
137	25537	84	5.8201201644269
138	25537	84	2.0031632257812
139	25537	84	4.2187098686395

