version 2
run WithBeaconing-0-20200226-05:26:57-10873
attr configname WithBeaconing
attr datetime 20200226-05:26:57
attr experiment WithBeaconing
attr inifile omnetpp.ini
attr iterationvars ""
attr iterationvarsf ""
attr measurement ""
attr network RSUExampleScenario2
attr processid 10873
attr repetition 0
attr replication #0
attr resultdir results
attr runnumber 0
attr seedset 0
param *.rsu[*].appl.sendBeacons true
param *.node[*].appl.sendBeacons true
param *.playgroundSizeX 11000m
param *.playgroundSizeY 2000m
param *.playgroundSizeZ 50m
param *.annotations.draw true
param *.manager.updateInterval 1s
param *.manager.host "\"localhost\""
param *.manager.port 9999
param *.manager.autoShutdown true
param *.manager.launchConfig "xmldoc(\"myVeinsAPP.launchd.xml\")"
param *.rsu[0].mobility.x 2000
param *.rsu[0].mobility.y 50
param *.rsu[0].mobility.z 3
param *.rsu[*].applType "\"TraCIDemoRSU11p\""
param *.rsu[*].appl.headerLength "80 bit"
param *.rsu[*].appl.sendBeacons false
param *.rsu[*].appl.dataOnSch false
param *.rsu[*].appl.beaconInterval 1s
param *.rsu[*].appl.beaconUserPriority 7
param *.rsu[*].appl.dataUserPriority 5
param *.rsu[*].nic.phy80211p.antennaOffsetZ "0 m"
param *.connectionManager.sendDirect true
param *.connectionManager.maxInterfDist 300m
param *.connectionManager.drawMaxIntfDist false
param *.**.nic.mac1609_4.useServiceChannel false
param *.**.nic.mac1609_4.txPower 20mW
param *.**.nic.mac1609_4.bitrate 6Mbps
param *.**.nic.phy80211p.minPowerLevel -110dBm
param *.**.nic.phy80211p.useNoiseFloor true
param *.**.nic.phy80211p.noiseFloor -98dBm
param *.**.nic.phy80211p.decider "xmldoc(\"config2.xml\")"
param *.**.nic.phy80211p.analogueModels "xmldoc(\"config2.xml\")"
param *.**.nic.phy80211p.usePropagationDelay true
param *.**.nic.phy80211p.antenna "xmldoc(\"antenna.xml\", \"/root/Antenna[@id='monopole']\")"
param *.node[*].nic.phy80211p.antennaOffsetY "0 m"
param *.node[*].nic.phy80211p.antennaOffsetZ "1.895 m"
param *.node[*].applType "\"MyVeinsApp\""
param *.node[*].appl.headerLength "80 bit"
param *.node[*].appl.sendBeacons false
param *.node[*].appl.dataOnSch false
param *.node[*].appl.beaconInterval 1s
param *.node[*].veinsmobility.x 0
param *.node[*].veinsmobility.y 0
param *.node[*].veinsmobility.z 0
param *.node[*].veinsmobility.setHostSpeed true
param *.node[*0].veinsmobility.accidentCount 5
param *.node[*0].veinsmobility.accidentStart 73s
param *.node[*0].veinsmobility.accidentDuration 20s

vector 0 RSUExampleScenario2.node[0].veinsmobility posx ETV
vector 1 RSUExampleScenario2.node[0].veinsmobility posy ETV
vector 2 RSUExampleScenario2.node[1].veinsmobility posx ETV
vector 3 RSUExampleScenario2.node[1].veinsmobility posy ETV
vector 4 RSUExampleScenario2.node[2].veinsmobility posx ETV
vector 5 RSUExampleScenario2.node[2].veinsmobility posy ETV
vector 6 RSUExampleScenario2.node[3].veinsmobility posx ETV
vector 7 RSUExampleScenario2.node[3].veinsmobility posy ETV
vector 8 RSUExampleScenario2.node[4].veinsmobility posx ETV
vector 9 RSUExampleScenario2.node[4].veinsmobility posy ETV
vector 10 RSUExampleScenario2.node[5].veinsmobility posx ETV
vector 11 RSUExampleScenario2.node[5].veinsmobility posy ETV
vector 12 RSUExampleScenario2.node[6].veinsmobility posx ETV
vector 13 RSUExampleScenario2.node[6].veinsmobility posy ETV
vector 14 RSUExampleScenario2.node[7].veinsmobility posx ETV
vector 15 RSUExampleScenario2.node[7].veinsmobility posy ETV
vector 16 RSUExampleScenario2.node[8].veinsmobility posx ETV
vector 17 RSUExampleScenario2.node[8].veinsmobility posy ETV
vector 18 RSUExampleScenario2.node[9].veinsmobility posx ETV
vector 19 RSUExampleScenario2.node[9].veinsmobility posy ETV
vector 20 RSUExampleScenario2.node[10].veinsmobility posx ETV
vector 21 RSUExampleScenario2.node[10].veinsmobility posy ETV
vector 22 RSUExampleScenario2.node[11].veinsmobility posx ETV
vector 23 RSUExampleScenario2.node[11].veinsmobility posy ETV
vector 24 RSUExampleScenario2.node[12].veinsmobility posx ETV
vector 25 RSUExampleScenario2.node[12].veinsmobility posy ETV
vector 26 RSUExampleScenario2.node[13].veinsmobility posx ETV
vector 27 RSUExampleScenario2.node[13].veinsmobility posy ETV
vector 28 RSUExampleScenario2.node[14].veinsmobility posx ETV
vector 29 RSUExampleScenario2.node[14].veinsmobility posy ETV
vector 30 RSUExampleScenario2.node[15].veinsmobility posx ETV
vector 31 RSUExampleScenario2.node[15].veinsmobility posy ETV
vector 32 RSUExampleScenario2.node[16].veinsmobility posx ETV
vector 33 RSUExampleScenario2.node[16].veinsmobility posy ETV
vector 34 RSUExampleScenario2.node[17].veinsmobility posx ETV
vector 35 RSUExampleScenario2.node[17].veinsmobility posy ETV
vector 36 RSUExampleScenario2.node[18].veinsmobility posx ETV
vector 37 RSUExampleScenario2.node[18].veinsmobility posy ETV
vector 38 RSUExampleScenario2.node[19].veinsmobility posx ETV
vector 39 RSUExampleScenario2.node[19].veinsmobility posy ETV
vector 40 RSUExampleScenario2.node[20].veinsmobility posx ETV
vector 41 RSUExampleScenario2.node[20].veinsmobility posy ETV
vector 42 RSUExampleScenario2.node[21].veinsmobility posx ETV
vector 43 RSUExampleScenario2.node[21].veinsmobility posy ETV
vector 44 RSUExampleScenario2.node[22].veinsmobility posx ETV
vector 45 RSUExampleScenario2.node[22].veinsmobility posy ETV
vector 46 RSUExampleScenario2.node[23].veinsmobility posx ETV
vector 47 RSUExampleScenario2.node[23].veinsmobility posy ETV
vector 48 RSUExampleScenario2.node[24].veinsmobility posx ETV
vector 49 RSUExampleScenario2.node[24].veinsmobility posy ETV
vector 50 RSUExampleScenario2.node[25].veinsmobility posx ETV
vector 51 RSUExampleScenario2.node[25].veinsmobility posy ETV
vector 52 RSUExampleScenario2.node[26].veinsmobility posx ETV
vector 53 RSUExampleScenario2.node[26].veinsmobility posy ETV
vector 54 RSUExampleScenario2.node[27].veinsmobility posx ETV
vector 55 RSUExampleScenario2.node[27].veinsmobility posy ETV
vector 56 RSUExampleScenario2.node[28].veinsmobility posx ETV
vector 57 RSUExampleScenario2.node[28].veinsmobility posy ETV
vector 58 RSUExampleScenario2.node[29].veinsmobility posx ETV
vector 59 RSUExampleScenario2.node[29].veinsmobility posy ETV
vector 60 RSUExampleScenario2.node[30].veinsmobility posx ETV
vector 61 RSUExampleScenario2.node[30].veinsmobility posy ETV
vector 62 RSUExampleScenario2.node[31].veinsmobility posx ETV
vector 63 RSUExampleScenario2.node[31].veinsmobility posy ETV
vector 64 RSUExampleScenario2.node[32].veinsmobility posx ETV
vector 65 RSUExampleScenario2.node[32].veinsmobility posy ETV
vector 66 RSUExampleScenario2.node[33].veinsmobility posx ETV
vector 67 RSUExampleScenario2.node[33].veinsmobility posy ETV
vector 68 RSUExampleScenario2.node[34].veinsmobility posx ETV
vector 69 RSUExampleScenario2.node[34].veinsmobility posy ETV
vector 70 RSUExampleScenario2.node[35].veinsmobility posx ETV
vector 71 RSUExampleScenario2.node[35].veinsmobility posy ETV
vector 72 RSUExampleScenario2.node[36].veinsmobility posx ETV
vector 73 RSUExampleScenario2.node[36].veinsmobility posy ETV
vector 74 RSUExampleScenario2.node[37].veinsmobility posx ETV
vector 75 RSUExampleScenario2.node[37].veinsmobility posy ETV
vector 76 RSUExampleScenario2.node[38].veinsmobility posx ETV
vector 77 RSUExampleScenario2.node[38].veinsmobility posy ETV
vector 78 RSUExampleScenario2.node[39].veinsmobility posx ETV
vector 79 RSUExampleScenario2.node[39].veinsmobility posy ETV
vector 80 RSUExampleScenario2.node[40].veinsmobility posx ETV
vector 81 RSUExampleScenario2.node[40].veinsmobility posy ETV
vector 82 RSUExampleScenario2.node[41].veinsmobility posx ETV
vector 83 RSUExampleScenario2.node[41].veinsmobility posy ETV
vector 84 RSUExampleScenario2.node[42].veinsmobility posx ETV
vector 85 RSUExampleScenario2.node[42].veinsmobility posy ETV
vector 86 RSUExampleScenario2.node[43].veinsmobility posx ETV
vector 87 RSUExampleScenario2.node[43].veinsmobility posy ETV
vector 88 RSUExampleScenario2.node[44].veinsmobility posx ETV
vector 89 RSUExampleScenario2.node[44].veinsmobility posy ETV
vector 90 RSUExampleScenario2.node[45].veinsmobility posx ETV
vector 91 RSUExampleScenario2.node[45].veinsmobility posy ETV
vector 92 RSUExampleScenario2.node[46].veinsmobility posx ETV
vector 93 RSUExampleScenario2.node[46].veinsmobility posy ETV
vector 94 RSUExampleScenario2.node[47].veinsmobility posx ETV
vector 95 RSUExampleScenario2.node[47].veinsmobility posy ETV
vector 96 RSUExampleScenario2.node[48].veinsmobility posx ETV
vector 97 RSUExampleScenario2.node[48].veinsmobility posy ETV
vector 98 RSUExampleScenario2.node[49].veinsmobility posx ETV
vector 99 RSUExampleScenario2.node[49].veinsmobility posy ETV
vector 100 RSUExampleScenario2.node[50].veinsmobility posx ETV
vector 101 RSUExampleScenario2.node[50].veinsmobility posy ETV
vector 102 RSUExampleScenario2.node[51].veinsmobility posx ETV
vector 103 RSUExampleScenario2.node[51].veinsmobility posy ETV
vector 104 RSUExampleScenario2.node[52].veinsmobility posx ETV
vector 105 RSUExampleScenario2.node[52].veinsmobility posy ETV
vector 106 RSUExampleScenario2.node[53].veinsmobility posx ETV
vector 107 RSUExampleScenario2.node[53].veinsmobility posy ETV
vector 108 RSUExampleScenario2.node[54].veinsmobility posx ETV
vector 109 RSUExampleScenario2.node[54].veinsmobility posy ETV
vector 110 RSUExampleScenario2.node[55].veinsmobility posx ETV
vector 111 RSUExampleScenario2.node[55].veinsmobility posy ETV
vector 112 RSUExampleScenario2.node[56].veinsmobility posx ETV
vector 113 RSUExampleScenario2.node[56].veinsmobility posy ETV
vector 114 RSUExampleScenario2.node[57].veinsmobility posx ETV
vector 115 RSUExampleScenario2.node[57].veinsmobility posy ETV
vector 116 RSUExampleScenario2.node[58].veinsmobility posx ETV
vector 117 RSUExampleScenario2.node[58].veinsmobility posy ETV
vector 118 RSUExampleScenario2.node[59].veinsmobility posx ETV
vector 119 RSUExampleScenario2.node[59].veinsmobility posy ETV
vector 120 RSUExampleScenario2.node[60].veinsmobility posx ETV
vector 121 RSUExampleScenario2.node[60].veinsmobility posy ETV
vector 122 RSUExampleScenario2.node[61].veinsmobility posx ETV
vector 123 RSUExampleScenario2.node[61].veinsmobility posy ETV
vector 124 RSUExampleScenario2.node[62].veinsmobility posx ETV
vector 125 RSUExampleScenario2.node[62].veinsmobility posy ETV
vector 126 RSUExampleScenario2.node[63].veinsmobility posx ETV
vector 127 RSUExampleScenario2.node[63].veinsmobility posy ETV
vector 128 RSUExampleScenario2.node[64].veinsmobility posx ETV
vector 129 RSUExampleScenario2.node[64].veinsmobility posy ETV
vector 130 RSUExampleScenario2.node[65].veinsmobility posx ETV
vector 131 RSUExampleScenario2.node[65].veinsmobility posy ETV
vector 132 RSUExampleScenario2.node[66].veinsmobility posx ETV
vector 133 RSUExampleScenario2.node[66].veinsmobility posy ETV
vector 134 RSUExampleScenario2.node[67].veinsmobility posx ETV
vector 135 RSUExampleScenario2.node[67].veinsmobility posy ETV
vector 136 RSUExampleScenario2.node[68].veinsmobility posx ETV
vector 137 RSUExampleScenario2.node[68].veinsmobility posy ETV
vector 138 RSUExampleScenario2.node[69].veinsmobility posx ETV
vector 139 RSUExampleScenario2.node[69].veinsmobility posy ETV
vector 140 RSUExampleScenario2.node[70].veinsmobility posx ETV
vector 141 RSUExampleScenario2.node[70].veinsmobility posy ETV
vector 142 RSUExampleScenario2.node[71].veinsmobility posx ETV
vector 143 RSUExampleScenario2.node[71].veinsmobility posy ETV
vector 144 RSUExampleScenario2.node[72].veinsmobility posx ETV
vector 145 RSUExampleScenario2.node[72].veinsmobility posy ETV
vector 146 RSUExampleScenario2.node[73].veinsmobility posx ETV
vector 147 RSUExampleScenario2.node[73].veinsmobility posy ETV
vector 148 RSUExampleScenario2.node[74].veinsmobility posx ETV
vector 149 RSUExampleScenario2.node[74].veinsmobility posy ETV
vector 150 RSUExampleScenario2.node[75].veinsmobility posx ETV
vector 151 RSUExampleScenario2.node[75].veinsmobility posy ETV
vector 152 RSUExampleScenario2.node[76].veinsmobility posx ETV
vector 153 RSUExampleScenario2.node[76].veinsmobility posy ETV
vector 154 RSUExampleScenario2.node[77].veinsmobility posx ETV
vector 155 RSUExampleScenario2.node[77].veinsmobility posy ETV
vector 156 RSUExampleScenario2.node[78].veinsmobility posx ETV
vector 157 RSUExampleScenario2.node[78].veinsmobility posy ETV
vector 158 RSUExampleScenario2.node[79].veinsmobility posx ETV
vector 159 RSUExampleScenario2.node[79].veinsmobility posy ETV
vector 160 RSUExampleScenario2.node[80].veinsmobility posx ETV
vector 161 RSUExampleScenario2.node[80].veinsmobility posy ETV
vector 162 RSUExampleScenario2.node[81].veinsmobility posx ETV
vector 163 RSUExampleScenario2.node[81].veinsmobility posy ETV
vector 164 RSUExampleScenario2.node[82].veinsmobility posx ETV
vector 165 RSUExampleScenario2.node[82].veinsmobility posy ETV
vector 166 RSUExampleScenario2.node[83].veinsmobility posx ETV
vector 167 RSUExampleScenario2.node[83].veinsmobility posy ETV
vector 168 RSUExampleScenario2.node[84].veinsmobility posx ETV
vector 169 RSUExampleScenario2.node[84].veinsmobility posy ETV
vector 170 RSUExampleScenario2.node[85].veinsmobility posx ETV
vector 171 RSUExampleScenario2.node[85].veinsmobility posy ETV
vector 172 RSUExampleScenario2.node[86].veinsmobility posx ETV
vector 173 RSUExampleScenario2.node[86].veinsmobility posy ETV
vector 174 RSUExampleScenario2.node[87].veinsmobility posx ETV
vector 175 RSUExampleScenario2.node[87].veinsmobility posy ETV
vector 176 RSUExampleScenario2.node[88].veinsmobility posx ETV
vector 177 RSUExampleScenario2.node[88].veinsmobility posy ETV
vector 178 RSUExampleScenario2.node[89].veinsmobility posx ETV
vector 179 RSUExampleScenario2.node[89].veinsmobility posy ETV
vector 180 RSUExampleScenario2.node[90].veinsmobility posx ETV
vector 181 RSUExampleScenario2.node[90].veinsmobility posy ETV
vector 182 RSUExampleScenario2.node[91].veinsmobility posx ETV
vector 183 RSUExampleScenario2.node[91].veinsmobility posy ETV
vector 184 RSUExampleScenario2.node[92].veinsmobility posx ETV
vector 185 RSUExampleScenario2.node[92].veinsmobility posy ETV
vector 186 RSUExampleScenario2.node[93].veinsmobility posx ETV
vector 187 RSUExampleScenario2.node[93].veinsmobility posy ETV
vector 188 RSUExampleScenario2.node[94].veinsmobility posx ETV
vector 189 RSUExampleScenario2.node[94].veinsmobility posy ETV
vector 190 RSUExampleScenario2.node[95].veinsmobility posx ETV
vector 191 RSUExampleScenario2.node[95].veinsmobility posy ETV
vector 192 RSUExampleScenario2.node[96].veinsmobility posx ETV
vector 193 RSUExampleScenario2.node[96].veinsmobility posy ETV
vector 194 RSUExampleScenario2.node[97].veinsmobility posx ETV
vector 195 RSUExampleScenario2.node[97].veinsmobility posy ETV
vector 196 RSUExampleScenario2.node[98].veinsmobility posx ETV
vector 197 RSUExampleScenario2.node[98].veinsmobility posy ETV
vector 198 RSUExampleScenario2.node[99].veinsmobility posx ETV
vector 199 RSUExampleScenario2.node[99].veinsmobility posy ETV
vector 200 RSUExampleScenario2.node[100].veinsmobility posx ETV
vector 201 RSUExampleScenario2.node[100].veinsmobility posy ETV
vector 202 RSUExampleScenario2.node[101].veinsmobility posx ETV
vector 203 RSUExampleScenario2.node[101].veinsmobility posy ETV
vector 204 RSUExampleScenario2.node[102].veinsmobility posx ETV
vector 205 RSUExampleScenario2.node[102].veinsmobility posy ETV
vector 206 RSUExampleScenario2.node[103].veinsmobility posx ETV
vector 207 RSUExampleScenario2.node[103].veinsmobility posy ETV
vector 208 RSUExampleScenario2.node[104].veinsmobility posx ETV
vector 209 RSUExampleScenario2.node[104].veinsmobility posy ETV
vector 210 RSUExampleScenario2.node[105].veinsmobility posx ETV
vector 211 RSUExampleScenario2.node[105].veinsmobility posy ETV
vector 212 RSUExampleScenario2.node[106].veinsmobility posx ETV
vector 213 RSUExampleScenario2.node[106].veinsmobility posy ETV
vector 214 RSUExampleScenario2.node[107].veinsmobility posx ETV
vector 215 RSUExampleScenario2.node[107].veinsmobility posy ETV
vector 216 RSUExampleScenario2.node[108].veinsmobility posx ETV
vector 217 RSUExampleScenario2.node[108].veinsmobility posy ETV
vector 218 RSUExampleScenario2.node[109].veinsmobility posx ETV
vector 219 RSUExampleScenario2.node[109].veinsmobility posy ETV
vector 220 RSUExampleScenario2.node[110].veinsmobility posx ETV
vector 221 RSUExampleScenario2.node[110].veinsmobility posy ETV
vector 222 RSUExampleScenario2.node[111].veinsmobility posx ETV
vector 223 RSUExampleScenario2.node[111].veinsmobility posy ETV
vector 224 RSUExampleScenario2.node[112].veinsmobility posx ETV
vector 225 RSUExampleScenario2.node[112].veinsmobility posy ETV
vector 226 RSUExampleScenario2.node[113].veinsmobility posx ETV
vector 227 RSUExampleScenario2.node[113].veinsmobility posy ETV
vector 228 RSUExampleScenario2.node[114].veinsmobility posx ETV
vector 229 RSUExampleScenario2.node[114].veinsmobility posy ETV
vector 230 RSUExampleScenario2.node[115].veinsmobility posx ETV
vector 231 RSUExampleScenario2.node[115].veinsmobility posy ETV
vector 232 RSUExampleScenario2.node[116].veinsmobility posx ETV
vector 233 RSUExampleScenario2.node[116].veinsmobility posy ETV
vector 234 RSUExampleScenario2.node[117].veinsmobility posx ETV
vector 235 RSUExampleScenario2.node[117].veinsmobility posy ETV
vector 236 RSUExampleScenario2.node[118].veinsmobility posx ETV
vector 237 RSUExampleScenario2.node[118].veinsmobility posy ETV
vector 238 RSUExampleScenario2.node[119].veinsmobility posx ETV
vector 239 RSUExampleScenario2.node[119].veinsmobility posy ETV
vector 240 RSUExampleScenario2.node[120].veinsmobility posx ETV
vector 241 RSUExampleScenario2.node[120].veinsmobility posy ETV
vector 242 RSUExampleScenario2.node[121].veinsmobility posx ETV
vector 243 RSUExampleScenario2.node[121].veinsmobility posy ETV
vector 244 RSUExampleScenario2.node[122].veinsmobility posx ETV
vector 245 RSUExampleScenario2.node[122].veinsmobility posy ETV
vector 246 RSUExampleScenario2.node[123].veinsmobility posx ETV
vector 247 RSUExampleScenario2.node[123].veinsmobility posy ETV
vector 248 RSUExampleScenario2.node[124].veinsmobility posx ETV
vector 249 RSUExampleScenario2.node[124].veinsmobility posy ETV
vector 250 RSUExampleScenario2.node[125].veinsmobility posx ETV
vector 251 RSUExampleScenario2.node[125].veinsmobility posy ETV
vector 252 RSUExampleScenario2.node[126].veinsmobility posx ETV
vector 253 RSUExampleScenario2.node[126].veinsmobility posy ETV
vector 254 RSUExampleScenario2.node[127].veinsmobility posx ETV
vector 255 RSUExampleScenario2.node[127].veinsmobility posy ETV
vector 256 RSUExampleScenario2.node[128].veinsmobility posx ETV
vector 257 RSUExampleScenario2.node[128].veinsmobility posy ETV
vector 258 RSUExampleScenario2.node[129].veinsmobility posx ETV
vector 259 RSUExampleScenario2.node[129].veinsmobility posy ETV
vector 260 RSUExampleScenario2.node[130].veinsmobility posx ETV
vector 261 RSUExampleScenario2.node[130].veinsmobility posy ETV
vector 262 RSUExampleScenario2.node[131].veinsmobility posx ETV
vector 263 RSUExampleScenario2.node[131].veinsmobility posy ETV
vector 264 RSUExampleScenario2.node[132].veinsmobility posx ETV
vector 265 RSUExampleScenario2.node[132].veinsmobility posy ETV
vector 266 RSUExampleScenario2.node[133].veinsmobility posx ETV
vector 267 RSUExampleScenario2.node[133].veinsmobility posy ETV
vector 268 RSUExampleScenario2.node[134].veinsmobility posx ETV
vector 269 RSUExampleScenario2.node[134].veinsmobility posy ETV
vector 270 RSUExampleScenario2.node[135].veinsmobility posx ETV
vector 271 RSUExampleScenario2.node[135].veinsmobility posy ETV
vector 272 RSUExampleScenario2.node[136].veinsmobility posx ETV
vector 273 RSUExampleScenario2.node[136].veinsmobility posy ETV
vector 274 RSUExampleScenario2.node[137].veinsmobility posx ETV
vector 275 RSUExampleScenario2.node[137].veinsmobility posy ETV
vector 276 RSUExampleScenario2.node[138].veinsmobility posx ETV
vector 277 RSUExampleScenario2.node[138].veinsmobility posy ETV
vector 278 RSUExampleScenario2.node[139].veinsmobility posx ETV
vector 279 RSUExampleScenario2.node[139].veinsmobility posy ETV
vector 280 RSUExampleScenario2.node[140].veinsmobility posx ETV
vector 281 RSUExampleScenario2.node[140].veinsmobility posy ETV
vector 282 RSUExampleScenario2.node[141].veinsmobility posx ETV
vector 283 RSUExampleScenario2.node[141].veinsmobility posy ETV
vector 284 RSUExampleScenario2.node[142].veinsmobility posx ETV
vector 285 RSUExampleScenario2.node[142].veinsmobility posy ETV
vector 286 RSUExampleScenario2.node[143].veinsmobility posx ETV
vector 287 RSUExampleScenario2.node[143].veinsmobility posy ETV
vector 288 RSUExampleScenario2.node[144].veinsmobility posx ETV
vector 289 RSUExampleScenario2.node[144].veinsmobility posy ETV
vector 290 RSUExampleScenario2.node[145].veinsmobility posx ETV
vector 291 RSUExampleScenario2.node[145].veinsmobility posy ETV
vector 292 RSUExampleScenario2.node[146].veinsmobility posx ETV
vector 293 RSUExampleScenario2.node[146].veinsmobility posy ETV
vector 294 RSUExampleScenario2.node[147].veinsmobility posx ETV
vector 295 RSUExampleScenario2.node[147].veinsmobility posy ETV
vector 296 RSUExampleScenario2.node[148].veinsmobility posx ETV
vector 297 RSUExampleScenario2.node[148].veinsmobility posy ETV
vector 298 RSUExampleScenario2.node[149].veinsmobility posx ETV
vector 299 RSUExampleScenario2.node[149].veinsmobility posy ETV
vector 300 RSUExampleScenario2.node[150].veinsmobility posx ETV
vector 301 RSUExampleScenario2.node[150].veinsmobility posy ETV
vector 302 RSUExampleScenario2.node[151].veinsmobility posx ETV
vector 303 RSUExampleScenario2.node[151].veinsmobility posy ETV
vector 304 RSUExampleScenario2.node[152].veinsmobility posx ETV
vector 305 RSUExampleScenario2.node[152].veinsmobility posy ETV
vector 306 RSUExampleScenario2.node[153].veinsmobility posx ETV
vector 307 RSUExampleScenario2.node[153].veinsmobility posy ETV
vector 308 RSUExampleScenario2.node[154].veinsmobility posx ETV
vector 309 RSUExampleScenario2.node[154].veinsmobility posy ETV
vector 310 RSUExampleScenario2.node[155].veinsmobility posx ETV
vector 311 RSUExampleScenario2.node[155].veinsmobility posy ETV
vector 312 RSUExampleScenario2.node[156].veinsmobility posx ETV
vector 313 RSUExampleScenario2.node[156].veinsmobility posy ETV
vector 314 RSUExampleScenario2.node[157].veinsmobility posx ETV
vector 315 RSUExampleScenario2.node[157].veinsmobility posy ETV
vector 316 RSUExampleScenario2.node[158].veinsmobility posx ETV
vector 317 RSUExampleScenario2.node[158].veinsmobility posy ETV
vector 318 RSUExampleScenario2.node[159].veinsmobility posx ETV
vector 319 RSUExampleScenario2.node[159].veinsmobility posy ETV
vector 320 RSUExampleScenario2.node[160].veinsmobility posx ETV
vector 321 RSUExampleScenario2.node[160].veinsmobility posy ETV
vector 322 RSUExampleScenario2.node[161].veinsmobility posx ETV
vector 323 RSUExampleScenario2.node[161].veinsmobility posy ETV
vector 324 RSUExampleScenario2.node[162].veinsmobility posx ETV
vector 325 RSUExampleScenario2.node[162].veinsmobility posy ETV
vector 326 RSUExampleScenario2.node[163].veinsmobility posx ETV
vector 327 RSUExampleScenario2.node[163].veinsmobility posy ETV
vector 328 RSUExampleScenario2.node[164].veinsmobility posx ETV
vector 329 RSUExampleScenario2.node[164].veinsmobility posy ETV
vector 330 RSUExampleScenario2.node[165].veinsmobility posx ETV
vector 331 RSUExampleScenario2.node[165].veinsmobility posy ETV
vector 332 RSUExampleScenario2.node[166].veinsmobility posx ETV
vector 333 RSUExampleScenario2.node[166].veinsmobility posy ETV
vector 334 RSUExampleScenario2.node[167].veinsmobility posx ETV
vector 335 RSUExampleScenario2.node[167].veinsmobility posy ETV
vector 336 RSUExampleScenario2.node[168].veinsmobility posx ETV
vector 337 RSUExampleScenario2.node[168].veinsmobility posy ETV
vector 338 RSUExampleScenario2.node[169].veinsmobility posx ETV
vector 339 RSUExampleScenario2.node[169].veinsmobility posy ETV
vector 340 RSUExampleScenario2.node[170].veinsmobility posx ETV
vector 341 RSUExampleScenario2.node[170].veinsmobility posy ETV
vector 342 RSUExampleScenario2.node[171].veinsmobility posx ETV
vector 343 RSUExampleScenario2.node[171].veinsmobility posy ETV
vector 344 RSUExampleScenario2.node[172].veinsmobility posx ETV
vector 345 RSUExampleScenario2.node[172].veinsmobility posy ETV
vector 346 RSUExampleScenario2.node[173].veinsmobility posx ETV
vector 347 RSUExampleScenario2.node[173].veinsmobility posy ETV
vector 348 RSUExampleScenario2.node[174].veinsmobility posx ETV
vector 349 RSUExampleScenario2.node[174].veinsmobility posy ETV
vector 350 RSUExampleScenario2.node[175].veinsmobility posx ETV
vector 351 RSUExampleScenario2.node[175].veinsmobility posy ETV
vector 352 RSUExampleScenario2.node[176].veinsmobility posx ETV
vector 353 RSUExampleScenario2.node[176].veinsmobility posy ETV
vector 354 RSUExampleScenario2.node[177].veinsmobility posx ETV
vector 355 RSUExampleScenario2.node[177].veinsmobility posy ETV
vector 356 RSUExampleScenario2.node[178].veinsmobility posx ETV
vector 357 RSUExampleScenario2.node[178].veinsmobility posy ETV
vector 358 RSUExampleScenario2.node[179].veinsmobility posx ETV
vector 359 RSUExampleScenario2.node[179].veinsmobility posy ETV
vector 360 RSUExampleScenario2.node[180].veinsmobility posx ETV
vector 361 RSUExampleScenario2.node[180].veinsmobility posy ETV
vector 362 RSUExampleScenario2.node[181].veinsmobility posx ETV
vector 363 RSUExampleScenario2.node[181].veinsmobility posy ETV
vector 364 RSUExampleScenario2.node[182].veinsmobility posx ETV
vector 365 RSUExampleScenario2.node[182].veinsmobility posy ETV
vector 366 RSUExampleScenario2.node[183].veinsmobility posx ETV
vector 367 RSUExampleScenario2.node[183].veinsmobility posy ETV
vector 368 RSUExampleScenario2.node[184].veinsmobility posx ETV
vector 369 RSUExampleScenario2.node[184].veinsmobility posy ETV
vector 370 RSUExampleScenario2.node[185].veinsmobility posx ETV
vector 371 RSUExampleScenario2.node[185].veinsmobility posy ETV
vector 372 RSUExampleScenario2.node[186].veinsmobility posx ETV
vector 373 RSUExampleScenario2.node[186].veinsmobility posy ETV
vector 374 RSUExampleScenario2.node[187].veinsmobility posx ETV
vector 375 RSUExampleScenario2.node[187].veinsmobility posy ETV
vector 376 RSUExampleScenario2.node[188].veinsmobility posx ETV
vector 377 RSUExampleScenario2.node[188].veinsmobility posy ETV
vector 378 RSUExampleScenario2.node[189].veinsmobility posx ETV
vector 379 RSUExampleScenario2.node[189].veinsmobility posy ETV
vector 380 RSUExampleScenario2.node[190].veinsmobility posx ETV
vector 381 RSUExampleScenario2.node[190].veinsmobility posy ETV
vector 382 RSUExampleScenario2.node[191].veinsmobility posx ETV
vector 383 RSUExampleScenario2.node[191].veinsmobility posy ETV
vector 384 RSUExampleScenario2.node[192].veinsmobility posx ETV
vector 385 RSUExampleScenario2.node[192].veinsmobility posy ETV
vector 386 RSUExampleScenario2.node[193].veinsmobility posx ETV
vector 387 RSUExampleScenario2.node[193].veinsmobility posy ETV
vector 388 RSUExampleScenario2.node[194].veinsmobility posx ETV
vector 389 RSUExampleScenario2.node[194].veinsmobility posy ETV
vector 390 RSUExampleScenario2.node[195].veinsmobility posx ETV
vector 391 RSUExampleScenario2.node[195].veinsmobility posy ETV
vector 392 RSUExampleScenario2.node[196].veinsmobility posx ETV
vector 393 RSUExampleScenario2.node[196].veinsmobility posy ETV
vector 394 RSUExampleScenario2.node[197].veinsmobility posx ETV
vector 395 RSUExampleScenario2.node[197].veinsmobility posy ETV
vector 396 RSUExampleScenario2.node[198].veinsmobility posx ETV
vector 397 RSUExampleScenario2.node[198].veinsmobility posy ETV
vector 398 RSUExampleScenario2.node[199].veinsmobility posx ETV
vector 399 RSUExampleScenario2.node[199].veinsmobility posy ETV
vector 400 RSUExampleScenario2.node[200].veinsmobility posx ETV
vector 401 RSUExampleScenario2.node[200].veinsmobility posy ETV
vector 402 RSUExampleScenario2.node[201].veinsmobility posx ETV
vector 403 RSUExampleScenario2.node[201].veinsmobility posy ETV
vector 404 RSUExampleScenario2.node[202].veinsmobility posx ETV
vector 405 RSUExampleScenario2.node[202].veinsmobility posy ETV
vector 406 RSUExampleScenario2.node[203].veinsmobility posx ETV
vector 407 RSUExampleScenario2.node[203].veinsmobility posy ETV
vector 408 RSUExampleScenario2.node[204].veinsmobility posx ETV
vector 409 RSUExampleScenario2.node[204].veinsmobility posy ETV
vector 410 RSUExampleScenario2.node[205].veinsmobility posx ETV
vector 411 RSUExampleScenario2.node[205].veinsmobility posy ETV
vector 412 RSUExampleScenario2.node[206].veinsmobility posx ETV
vector 413 RSUExampleScenario2.node[206].veinsmobility posy ETV
vector 414 RSUExampleScenario2.node[207].veinsmobility posx ETV
vector 415 RSUExampleScenario2.node[207].veinsmobility posy ETV
vector 416 RSUExampleScenario2.node[208].veinsmobility posx ETV
vector 417 RSUExampleScenario2.node[208].veinsmobility posy ETV
vector 418 RSUExampleScenario2.node[209].veinsmobility posx ETV
vector 419 RSUExampleScenario2.node[209].veinsmobility posy ETV
vector 420 RSUExampleScenario2.node[210].veinsmobility posx ETV
vector 421 RSUExampleScenario2.node[210].veinsmobility posy ETV
vector 422 RSUExampleScenario2.node[211].veinsmobility posx ETV
vector 423 RSUExampleScenario2.node[211].veinsmobility posy ETV
vector 424 RSUExampleScenario2.node[212].veinsmobility posx ETV
vector 425 RSUExampleScenario2.node[212].veinsmobility posy ETV
vector 426 RSUExampleScenario2.node[213].veinsmobility posx ETV
vector 427 RSUExampleScenario2.node[213].veinsmobility posy ETV
vector 428 RSUExampleScenario2.node[214].veinsmobility posx ETV
vector 429 RSUExampleScenario2.node[214].veinsmobility posy ETV
vector 430 RSUExampleScenario2.node[215].veinsmobility posx ETV
vector 431 RSUExampleScenario2.node[215].veinsmobility posy ETV
vector 432 RSUExampleScenario2.node[216].veinsmobility posx ETV
vector 433 RSUExampleScenario2.node[216].veinsmobility posy ETV
vector 434 RSUExampleScenario2.node[217].veinsmobility posx ETV
vector 435 RSUExampleScenario2.node[217].veinsmobility posy ETV
vector 436 RSUExampleScenario2.node[218].veinsmobility posx ETV
vector 437 RSUExampleScenario2.node[218].veinsmobility posy ETV
vector 438 RSUExampleScenario2.node[219].veinsmobility posx ETV
vector 439 RSUExampleScenario2.node[219].veinsmobility posy ETV
vector 440 RSUExampleScenario2.node[220].veinsmobility posx ETV
vector 441 RSUExampleScenario2.node[220].veinsmobility posy ETV
vector 442 RSUExampleScenario2.node[221].veinsmobility posx ETV
vector 443 RSUExampleScenario2.node[221].veinsmobility posy ETV
vector 444 RSUExampleScenario2.node[222].veinsmobility posx ETV
vector 445 RSUExampleScenario2.node[222].veinsmobility posy ETV
vector 446 RSUExampleScenario2.node[223].veinsmobility posx ETV
vector 447 RSUExampleScenario2.node[223].veinsmobility posy ETV
vector 448 RSUExampleScenario2.node[224].veinsmobility posx ETV
vector 449 RSUExampleScenario2.node[224].veinsmobility posy ETV
vector 450 RSUExampleScenario2.node[225].veinsmobility posx ETV
vector 451 RSUExampleScenario2.node[225].veinsmobility posy ETV
vector 452 RSUExampleScenario2.node[226].veinsmobility posx ETV
vector 453 RSUExampleScenario2.node[226].veinsmobility posy ETV
vector 454 RSUExampleScenario2.node[227].veinsmobility posx ETV
vector 455 RSUExampleScenario2.node[227].veinsmobility posy ETV
vector 456 RSUExampleScenario2.node[228].veinsmobility posx ETV
vector 457 RSUExampleScenario2.node[228].veinsmobility posy ETV
vector 458 RSUExampleScenario2.node[229].veinsmobility posx ETV
vector 459 RSUExampleScenario2.node[229].veinsmobility posy ETV
vector 460 RSUExampleScenario2.node[230].veinsmobility posx ETV
vector 461 RSUExampleScenario2.node[230].veinsmobility posy ETV
vector 462 RSUExampleScenario2.node[231].veinsmobility posx ETV
vector 463 RSUExampleScenario2.node[231].veinsmobility posy ETV
vector 464 RSUExampleScenario2.node[232].veinsmobility posx ETV
vector 465 RSUExampleScenario2.node[232].veinsmobility posy ETV
vector 466 RSUExampleScenario2.node[233].veinsmobility posx ETV
vector 467 RSUExampleScenario2.node[233].veinsmobility posy ETV
vector 468 RSUExampleScenario2.node[234].veinsmobility posx ETV
vector 469 RSUExampleScenario2.node[234].veinsmobility posy ETV
vector 470 RSUExampleScenario2.node[235].veinsmobility posx ETV
vector 471 RSUExampleScenario2.node[235].veinsmobility posy ETV
vector 472 RSUExampleScenario2.node[236].veinsmobility posx ETV
vector 473 RSUExampleScenario2.node[236].veinsmobility posy ETV
vector 474 RSUExampleScenario2.node[237].veinsmobility posx ETV
vector 475 RSUExampleScenario2.node[237].veinsmobility posy ETV
vector 476 RSUExampleScenario2.node[238].veinsmobility posx ETV
vector 477 RSUExampleScenario2.node[238].veinsmobility posy ETV
vector 478 RSUExampleScenario2.node[239].veinsmobility posx ETV
vector 479 RSUExampleScenario2.node[239].veinsmobility posy ETV
vector 480 RSUExampleScenario2.node[240].veinsmobility posx ETV
vector 481 RSUExampleScenario2.node[240].veinsmobility posy ETV
vector 482 RSUExampleScenario2.node[241].veinsmobility posx ETV
vector 483 RSUExampleScenario2.node[241].veinsmobility posy ETV
vector 484 RSUExampleScenario2.node[242].veinsmobility posx ETV
vector 485 RSUExampleScenario2.node[242].veinsmobility posy ETV
vector 486 RSUExampleScenario2.node[243].veinsmobility posx ETV
vector 487 RSUExampleScenario2.node[243].veinsmobility posy ETV
vector 488 RSUExampleScenario2.node[244].veinsmobility posx ETV
vector 489 RSUExampleScenario2.node[244].veinsmobility posy ETV
vector 490 RSUExampleScenario2.node[245].veinsmobility posx ETV
vector 491 RSUExampleScenario2.node[245].veinsmobility posy ETV
vector 492 RSUExampleScenario2.node[246].veinsmobility posx ETV
vector 493 RSUExampleScenario2.node[246].veinsmobility posy ETV
vector 494 RSUExampleScenario2.node[247].veinsmobility posx ETV
vector 495 RSUExampleScenario2.node[247].veinsmobility posy ETV
vector 496 RSUExampleScenario2.node[248].veinsmobility posx ETV
vector 497 RSUExampleScenario2.node[248].veinsmobility posy ETV
vector 498 RSUExampleScenario2.node[249].veinsmobility posx ETV
vector 499 RSUExampleScenario2.node[249].veinsmobility posy ETV
vector 500 RSUExampleScenario2.node[250].veinsmobility posx ETV
vector 501 RSUExampleScenario2.node[250].veinsmobility posy ETV
vector 502 RSUExampleScenario2.node[251].veinsmobility posx ETV
vector 503 RSUExampleScenario2.node[251].veinsmobility posy ETV
0	30	301	5902.0289666757
1	30	301	29.8
2	30	301	5853.5031319955
3	30	301	29.8
4	30	301	5417.0681354238
5	30	301	29.8
6	30	301	1103.7065448815
7	30	301	26.6
8	30	301	1065.0647109332
9	30	301	29.8
10	30	301	1013.1003291062
11	30	301	29.8
12	30	301	968.28916251263
13	30	301	26.6
14	30	301	846.25185119831
15	30	301	29.8
16	30	301	843.55967378836
17	30	301	26.6
18	30	301	754.46269192187
19	30	301	29.8
20	30	301	730.76035272007
21	30	301	26.6
22	30	301	707.06440937071
23	30	301	26.6
24	30	301	681.71040843468
25	30	301	26.6
26	30	301	5365.5557298972
27	30	301	29.8
28	30	301	633.75413768447
29	30	301	29.8
30	30	301	581.5210239247
31	30	301	29.8
32	30	301	541.06851237544
33	30	301	29.8
34	30	301	489.8216069183
35	30	301	29.8
36	30	301	432.01249821537
37	30	301	29.8
38	30	301	397.02227714323
39	30	301	29.8
40	30	301	344.81341060992
41	30	301	29.8
42	30	301	283.07474795298
43	30	301	29.8
44	30	301	237.65838775059
45	30	301	29.8
46	30	301	198.22124725173
47	30	301	29.8
48	30	301	5018.0595084681
49	30	301	29.8
50	30	301	156.20578683136
51	30	301	26.6
52	30	301	108.29131697985
53	30	301	26.6
54	30	301	77.402837080489
55	30	301	29.8
56	30	301	52.883137282668
57	30	301	26.6
58	30	301	35.705052313282
59	30	301	26.6
60	30	301	28.130648304271
61	30	301	29.8
62	30	301	5144.0108990982
63	30	301	26.6
64	30	301	5215.6971784928
65	30	301	26.6
66	30	301	5175.1766436365
67	30	301	26.6
68	30	301	4348.1697165541
69	30	301	29.8
70	30	301	5086.2679551211
71	30	301	29.8
72	30	301	5037.73418762
73	30	301	26.6
74	30	301	4719.9889903412
75	30	301	29.8
76	30	301	5144.2668217616
77	30	301	29.8
78	30	301	4400.4953458566
79	30	301	29.8
80	30	301	4456.5403101579
81	30	301	29.8
82	30	301	4278.8291702591
83	30	301	29.8
84	30	301	4090.8428255832
85	30	301	29.8
86	30	301	4119.6542376602
87	30	301	29.8
88	30	301	4345.029152656
89	30	301	26.6
90	30	301	4419.4697332327
91	30	301	26.6
92	30	301	4123.0314076959
93	30	301	26.6
94	30	301	3153.8523103095
95	30	301	29.8
96	30	301	4068.7749860703
97	30	301	29.8
98	30	301	5447.6158032098
99	30	301	29.8
100	30	301	3630.9683989362
101	30	301	29.8
102	30	301	4046.672289436
103	30	301	29.8
104	30	301	4099.4898410113
105	30	301	26.6
106	30	301	3585.7286500151
107	30	301	29.8
108	30	301	4075.9353370894
109	30	301	26.6
110	30	301	4052.3881411745
111	30	301	26.6
112	30	301	4024.0598743864
113	30	301	29.8
114	30	301	3598.0005131991
115	30	301	26.6
116	30	301	4028.8496373384
117	30	301	26.6
118	30	301	3558.9120200717
119	30	301	29.8
120	30	301	5671.9969258659
121	30	301	29.8
122	30	301	3982.8055427168
123	30	301	29.8
124	30	301	3925.1396572812
125	30	301	29.8
126	30	301	3853.8574547818
127	30	301	29.8
128	30	301	3828.3716785125
129	30	301	29.8
130	30	301	3791.7419212767
131	30	301	29.8
132	30	301	3732.9664574107
133	30	301	29.8
134	30	301	3702.121898522
135	30	301	29.8
136	30	301	3575.2777031065
137	30	301	26.6
138	30	301	3552.496890052
139	30	301	26.6
140	30	301	3132.6391678228
141	30	301	29.8
142	30	301	5646.7042578494
143	30	301	29.8
144	30	301	3352.5836545347
145	30	301	29.8
146	30	301	3445.0138916744
147	30	301	29.8
148	30	301	3406.5250097956
149	30	301	29.8
150	30	301	3224.339270194
151	30	301	29.8
152	30	301	3310.9786860844
153	30	301	29.8
154	30	301	3254.3563037954
155	30	301	29.8
156	30	301	3107.2094384741
157	30	301	29.8
158	30	301	3156.2118651697
159	30	301	26.6
160	30	301	3123.7920741559
161	30	301	26.6
162	30	301	3077.3568581226
163	30	301	29.8
164	30	301	5212.139238525
165	30	301	29.8
166	30	301	2665.4496823846
167	30	301	29.8
168	30	301	2861.3642020351
169	30	301	29.8
170	30	301	2923.5746925255
171	30	301	29.8
172	30	301	2879.9904941087
173	30	301	26.6
174	30	301	2831.0310197936
175	30	301	29.8
176	30	301	2742.3956393038
177	30	301	29.8
178	30	301	2477.2866461637
179	30	301	29.8
180	30	301	2579.8395439035
181	30	301	29.8
182	30	301	2618.6833199673
183	30	301	29.8
184	30	301	2454.1493604886
185	30	301	29.8
186	30	301	5553.0704178686
187	30	301	29.8
188	30	301	2549.2199495518
189	30	301	29.8
190	30	301	2499.6094128922
191	30	301	29.8
192	30	301	2454.7446641492
193	30	301	26.6
194	30	301	2405.7673916702
195	30	301	29.8
196	30	301	1942.9110576857
197	30	301	29.8
198	30	301	2166.3801417933
199	30	301	29.8
200	30	301	2259.8984052593
201	30	301	29.8
202	30	301	2210.0864121596
203	30	301	29.8
204	30	301	2122.4249165422
205	30	301	29.8
206	30	301	2045.2033578674
207	30	301	29.8
208	30	301	5509.8711319291
209	30	301	29.8
210	30	301	1817.2893072648
211	30	301	29.8
212	30	301	2011.322958129
213	30	301	26.6
214	30	301	1965.2758911327
215	30	301	26.6
216	30	301	1919.1727400922
217	30	301	26.6
218	30	301	1877.1606674786
219	30	301	29.8
220	30	301	1824.52347201
221	30	301	26.6
222	30	301	1579.6947814054
223	30	301	29.8
224	30	301	1729.4917800789
225	30	301	29.8
226	30	301	1434.1173235666
227	30	301	29.8
228	30	301	1473.0447220904
229	30	301	29.8
230	30	301	5459.2986862641
231	30	301	26.6
232	30	301	1589.1367512902
233	30	301	26.6
234	30	301	1479.8289209751
235	30	301	26.6
236	30	301	1454.6853396325
237	30	301	26.6
238	30	301	1377.5452861742
239	30	301	29.8
240	30	301	1378.0056307632
241	30	301	26.6
242	30	301	1349.0151927632
243	30	301	29.8
244	30	301	1213.8235409473
245	30	301	29.8
246	30	301	1236.576788976
247	30	301	29.8
248	30	301	956.58159777574
249	30	301	29.8
250	30	301	1106.2981853906
251	30	301	29.8
252	30	301	4145.7830136601
253	30	301	20.2
254	30	301	4193.7745549416
255	30	301	20.2
256	30	301	5258.7660031036
257	30	301	20.2
258	30	301	9019.4760352401
259	30	301	20.2
260	30	301	8986.5398024901
261	30	301	20.2
262	30	301	9061.8247994852
263	30	301	20.2
264	30	301	9077.7206079246
265	30	301	23.4
266	30	301	9215.3656610019
267	30	301	20.2
268	30	301	9173.0017831506
269	30	301	20.2
270	30	301	9221.3957171492
271	30	301	23.4
272	30	301	9302.4169405469
273	30	301	20.2
274	30	301	9353.1526758261
275	30	301	20.2
276	30	301	9384.7893450322
277	30	301	20.2
278	30	301	6022.0754761888
279	30	301	23.4
280	30	301	9417.0947499678
281	30	301	20.2
282	30	301	9459.9828773737
283	30	301	20.2
284	30	301	9530.5981763816
285	30	301	20.2
286	30	301	9556.9510660209
287	30	301	23.4
288	30	301	9619.6811321479
289	30	301	20.2
290	30	301	9655.1882927439
291	30	301	20.2
292	30	301	9740.0531589765
293	30	301	20.2
294	30	301	9752.1836283494
295	30	301	23.4
296	30	301	9796.2297685518
297	30	301	20.2
298	30	301	9843.3109380586
299	30	301	20.2
300	30	301	4733.5482697973
301	30	301	20.2
302	30	301	9894.7902566129
303	30	301	23.4
304	30	301	9937.0096425042
305	30	301	20.2
306	30	301	9970.2000869066
307	30	301	20.2
308	30	301	9996.6523983615
309	30	301	23.4
310	30	301	10013.852890214
311	30	301	23.4
312	30	301	10021.883324628
313	30	301	20.2
314	30	301	4784.9116322539
315	30	301	20.2
316	30	301	4828.0489757076
317	30	301	20.2
318	30	301	4879.6487211958
319	30	301	20.2
320	30	301	5029.2339837709
321	30	301	20.2
322	30	301	4968.5124984072
323	30	301	20.2
324	30	301	5620.5352870611
325	30	301	23.4
326	30	301	5869.1741993306
327	30	301	20.2
328	30	301	4248.0139087854
329	30	301	20.2
330	30	301	5111.6378627273
331	30	301	20.2
332	30	301	5587.743674832
333	30	301	20.2
334	30	301	5222.4229339509
335	30	301	20.2
336	30	301	6426.2823976258
337	30	301	20.2
338	30	301	5744.3939239776
339	30	301	20.2
340	30	301	5363.0849292317
341	30	301	20.2
342	30	301	6044.0097673511
343	30	301	20.2
344	30	301	5454.5437787311
345	30	301	20.2
346	30	301	5489.9729166939
347	30	301	20.2
348	30	301	6064.6613363776
349	30	301	20.2
350	30	301	5623.1102605037
351	30	301	20.2
352	30	301	6042.1740984781
353	30	301	23.4
354	30	301	5744.5002288658
355	30	301	23.4
356	30	301	5703.2341492535
357	30	301	20.2
358	30	301	5769.3262286444
359	30	301	23.4
360	30	301	5793.8188857162
361	30	301	20.2
362	30	301	6194.7393747376
363	30	301	20.2
364	30	301	6252.4361735203
365	30	301	20.2
366	30	301	6062.27720449
367	30	301	23.4
368	30	301	6082.3990783113
369	30	301	23.4
370	30	301	6086.7650485922
371	30	301	20.2
372	30	301	4346.538393937
373	30	301	20.2
374	30	301	6396.8002382354
375	30	301	20.2
376	30	301	6119.410623597
377	30	301	23.4
378	30	301	6258.144473805
379	30	301	23.4
380	30	301	6947.0791307205
381	30	301	20.2
382	30	301	6535.8587327436
383	30	301	20.2
384	30	301	6683.4045748875
385	30	301	20.2
386	30	301	6357.939358933
387	30	301	20.2
388	30	301	6415.5353506383
389	30	301	23.4
390	30	301	6528.752335337
391	30	301	23.4
392	30	301	6502.0781980533
393	30	301	20.2
394	30	301	4692.6645606604
395	30	301	20.2
396	30	301	6892.6662382811
397	30	301	20.2
398	30	301	7088.356915062
399	30	301	20.2
400	30	301	6708.2612657154
401	30	301	20.2
402	30	301	6706.8682172073
403	30	301	23.4
404	30	301	6740.7246265058
405	30	301	20.2
406	30	301	6797.0329269229
407	30	301	20.2
408	30	301	6980.7999528049
409	30	301	20.2
410	30	301	6883.501289466
411	30	301	23.4
412	30	301	6935.6499739114
413	30	301	23.4
414	30	301	6986.7079082539
415	30	301	23.4
416	30	301	4510.6871508685
417	30	301	20.2
418	30	301	7028.8685118421
419	30	301	20.2
420	30	301	7080.5681979918
421	30	301	23.4
422	30	301	7139.1610837034
423	30	301	20.2
424	30	301	7522.4043481044
425	30	301	20.2
426	30	301	7212.5362851116
427	30	301	20.2
428	30	301	7264.0292903699
429	30	301	20.2
430	30	301	7311.7181085647
431	30	301	20.2
432	30	301	7544.8352777167
433	30	301	20.2
434	30	301	7506.4730619113
435	30	301	23.4
436	30	301	7460.4788487556
437	30	301	20.2
438	30	301	4490.6716192392
439	30	301	23.4
440	30	301	7808.8671874567
441	30	301	20.2
442	30	301	7549.7842088126
443	30	301	23.4
444	30	301	7600.5272776788
445	30	301	20.2
446	30	301	7647.2496606599
447	30	301	20.2
448	30	301	7824.6562639124
449	30	301	23.4
450	30	301	7869.9672542757
451	30	301	20.2
452	30	301	7795.1970488743
453	30	301	23.4
454	30	301	8059.0618981175
455	30	301	20.2
456	30	301	8455.1609475984
457	30	301	20.2
458	30	301	8249.8182054767
459	30	301	20.2
460	30	301	6024.393012609
461	30	301	20.2
462	30	301	8006.4883549416
463	30	301	20.2
464	30	301	8126.6466614687
465	30	301	20.2
466	30	301	8096.7039559176
467	30	301	23.4
468	30	301	8407.1585708087
469	30	301	20.2
470	30	301	8243.8975620137
471	30	301	23.4
472	30	301	8273.7286007564
473	30	301	20.2
474	30	301	8272.8190583192
475	30	301	23.4
476	30	301	8320.3192588084
477	30	301	20.2
478	30	301	8393.5470335002
479	30	301	23.4
480	30	301	8418.6736308267
481	30	301	23.4
482	30	301	4912.0247241794
483	30	301	20.2
484	30	301	8551.3992594654
485	30	301	20.2
486	30	301	8662.8626983421
487	30	301	20.2
488	30	301	8614.572361609
489	30	301	20.2
490	30	301	8772.2165275953
491	30	301	20.2
492	30	301	8724.4616084165
493	30	301	20.2
494	30	301	8723.7046760032
495	30	301	23.4
496	30	301	8748.8784705157
497	30	301	23.4
498	30	301	8797.5491535231
499	30	301	23.4
500	30	301	8841.876176474
501	30	301	20.2
502	30	301	8911.8433855505
503	30	301	20.2
vector 504 RSUExampleScenario2.node[0].veinsmobility speed ETV
vector 505 RSUExampleScenario2.node[1].veinsmobility speed ETV
vector 506 RSUExampleScenario2.node[2].veinsmobility speed ETV
vector 507 RSUExampleScenario2.node[3].veinsmobility speed ETV
vector 508 RSUExampleScenario2.node[4].veinsmobility speed ETV
vector 509 RSUExampleScenario2.node[5].veinsmobility speed ETV
vector 510 RSUExampleScenario2.node[6].veinsmobility speed ETV
vector 511 RSUExampleScenario2.node[7].veinsmobility speed ETV
vector 512 RSUExampleScenario2.node[8].veinsmobility speed ETV
vector 513 RSUExampleScenario2.node[9].veinsmobility speed ETV
vector 514 RSUExampleScenario2.node[10].veinsmobility speed ETV
vector 515 RSUExampleScenario2.node[11].veinsmobility speed ETV
vector 516 RSUExampleScenario2.node[12].veinsmobility speed ETV
vector 517 RSUExampleScenario2.node[13].veinsmobility speed ETV
vector 518 RSUExampleScenario2.node[14].veinsmobility speed ETV
vector 519 RSUExampleScenario2.node[15].veinsmobility speed ETV
vector 520 RSUExampleScenario2.node[16].veinsmobility speed ETV
vector 521 RSUExampleScenario2.node[17].veinsmobility speed ETV
vector 522 RSUExampleScenario2.node[18].veinsmobility speed ETV
vector 523 RSUExampleScenario2.node[19].veinsmobility speed ETV
vector 524 RSUExampleScenario2.node[20].veinsmobility speed ETV
vector 525 RSUExampleScenario2.node[21].veinsmobility speed ETV
vector 526 RSUExampleScenario2.node[22].veinsmobility speed ETV
vector 527 RSUExampleScenario2.node[23].veinsmobility speed ETV
vector 528 RSUExampleScenario2.node[24].veinsmobility speed ETV
vector 529 RSUExampleScenario2.node[25].veinsmobility speed ETV
vector 530 RSUExampleScenario2.node[26].veinsmobility speed ETV
vector 531 RSUExampleScenario2.node[27].veinsmobility speed ETV
vector 532 RSUExampleScenario2.node[28].veinsmobility speed ETV
vector 533 RSUExampleScenario2.node[29].veinsmobility speed ETV
vector 534 RSUExampleScenario2.node[30].veinsmobility speed ETV
vector 535 RSUExampleScenario2.node[31].veinsmobility speed ETV
vector 536 RSUExampleScenario2.node[32].veinsmobility speed ETV
vector 537 RSUExampleScenario2.node[33].veinsmobility speed ETV
vector 538 RSUExampleScenario2.node[34].veinsmobility speed ETV
vector 539 RSUExampleScenario2.node[35].veinsmobility speed ETV
vector 540 RSUExampleScenario2.node[36].veinsmobility speed ETV
vector 541 RSUExampleScenario2.node[37].veinsmobility speed ETV
vector 542 RSUExampleScenario2.node[38].veinsmobility speed ETV
vector 543 RSUExampleScenario2.node[39].veinsmobility speed ETV
vector 544 RSUExampleScenario2.node[40].veinsmobility speed ETV
vector 545 RSUExampleScenario2.node[41].veinsmobility speed ETV
vector 546 RSUExampleScenario2.node[42].veinsmobility speed ETV
vector 547 RSUExampleScenario2.node[43].veinsmobility speed ETV
vector 548 RSUExampleScenario2.node[44].veinsmobility speed ETV
vector 549 RSUExampleScenario2.node[45].veinsmobility speed ETV
vector 550 RSUExampleScenario2.node[46].veinsmobility speed ETV
vector 551 RSUExampleScenario2.node[47].veinsmobility speed ETV
vector 552 RSUExampleScenario2.node[48].veinsmobility speed ETV
vector 553 RSUExampleScenario2.node[49].veinsmobility speed ETV
vector 554 RSUExampleScenario2.node[50].veinsmobility speed ETV
vector 555 RSUExampleScenario2.node[51].veinsmobility speed ETV
vector 556 RSUExampleScenario2.node[52].veinsmobility speed ETV
vector 557 RSUExampleScenario2.node[53].veinsmobility speed ETV
vector 558 RSUExampleScenario2.node[54].veinsmobility speed ETV
vector 559 RSUExampleScenario2.node[55].veinsmobility speed ETV
vector 560 RSUExampleScenario2.node[56].veinsmobility speed ETV
vector 561 RSUExampleScenario2.node[57].veinsmobility speed ETV
vector 562 RSUExampleScenario2.node[58].veinsmobility speed ETV
vector 563 RSUExampleScenario2.node[59].veinsmobility speed ETV
vector 564 RSUExampleScenario2.node[60].veinsmobility speed ETV
vector 565 RSUExampleScenario2.node[61].veinsmobility speed ETV
vector 566 RSUExampleScenario2.node[62].veinsmobility speed ETV
vector 567 RSUExampleScenario2.node[63].veinsmobility speed ETV
vector 568 RSUExampleScenario2.node[64].veinsmobility speed ETV
vector 569 RSUExampleScenario2.node[65].veinsmobility speed ETV
vector 570 RSUExampleScenario2.node[66].veinsmobility speed ETV
vector 571 RSUExampleScenario2.node[67].veinsmobility speed ETV
vector 572 RSUExampleScenario2.node[68].veinsmobility speed ETV
vector 573 RSUExampleScenario2.node[69].veinsmobility speed ETV
vector 574 RSUExampleScenario2.node[70].veinsmobility speed ETV
vector 575 RSUExampleScenario2.node[71].veinsmobility speed ETV
vector 576 RSUExampleScenario2.node[72].veinsmobility speed ETV
vector 577 RSUExampleScenario2.node[73].veinsmobility speed ETV
vector 578 RSUExampleScenario2.node[74].veinsmobility speed ETV
vector 579 RSUExampleScenario2.node[75].veinsmobility speed ETV
vector 580 RSUExampleScenario2.node[76].veinsmobility speed ETV
vector 581 RSUExampleScenario2.node[77].veinsmobility speed ETV
vector 582 RSUExampleScenario2.node[78].veinsmobility speed ETV
vector 583 RSUExampleScenario2.node[79].veinsmobility speed ETV
vector 584 RSUExampleScenario2.node[80].veinsmobility speed ETV
vector 585 RSUExampleScenario2.node[81].veinsmobility speed ETV
vector 586 RSUExampleScenario2.node[82].veinsmobility speed ETV
vector 587 RSUExampleScenario2.node[83].veinsmobility speed ETV
vector 588 RSUExampleScenario2.node[84].veinsmobility speed ETV
vector 589 RSUExampleScenario2.node[85].veinsmobility speed ETV
vector 590 RSUExampleScenario2.node[86].veinsmobility speed ETV
vector 591 RSUExampleScenario2.node[87].veinsmobility speed ETV
vector 592 RSUExampleScenario2.node[88].veinsmobility speed ETV
vector 593 RSUExampleScenario2.node[89].veinsmobility speed ETV
vector 594 RSUExampleScenario2.node[90].veinsmobility speed ETV
vector 595 RSUExampleScenario2.node[91].veinsmobility speed ETV
vector 596 RSUExampleScenario2.node[92].veinsmobility speed ETV
vector 597 RSUExampleScenario2.node[93].veinsmobility speed ETV
vector 598 RSUExampleScenario2.node[94].veinsmobility speed ETV
vector 599 RSUExampleScenario2.node[95].veinsmobility speed ETV
vector 600 RSUExampleScenario2.node[96].veinsmobility speed ETV
vector 601 RSUExampleScenario2.node[97].veinsmobility speed ETV
vector 602 RSUExampleScenario2.node[98].veinsmobility speed ETV
vector 603 RSUExampleScenario2.node[99].veinsmobility speed ETV
vector 604 RSUExampleScenario2.node[100].veinsmobility speed ETV
vector 605 RSUExampleScenario2.node[101].veinsmobility speed ETV
vector 606 RSUExampleScenario2.node[102].veinsmobility speed ETV
vector 607 RSUExampleScenario2.node[103].veinsmobility speed ETV
vector 608 RSUExampleScenario2.node[104].veinsmobility speed ETV
vector 609 RSUExampleScenario2.node[105].veinsmobility speed ETV
vector 610 RSUExampleScenario2.node[106].veinsmobility speed ETV
vector 611 RSUExampleScenario2.node[107].veinsmobility speed ETV
vector 612 RSUExampleScenario2.node[108].veinsmobility speed ETV
vector 613 RSUExampleScenario2.node[109].veinsmobility speed ETV
vector 614 RSUExampleScenario2.node[110].veinsmobility speed ETV
vector 615 RSUExampleScenario2.node[111].veinsmobility speed ETV
vector 616 RSUExampleScenario2.node[112].veinsmobility speed ETV
vector 617 RSUExampleScenario2.node[113].veinsmobility speed ETV
vector 618 RSUExampleScenario2.node[114].veinsmobility speed ETV
vector 619 RSUExampleScenario2.node[115].veinsmobility speed ETV
vector 620 RSUExampleScenario2.node[116].veinsmobility speed ETV
vector 621 RSUExampleScenario2.node[117].veinsmobility speed ETV
vector 622 RSUExampleScenario2.node[118].veinsmobility speed ETV
vector 623 RSUExampleScenario2.node[119].veinsmobility speed ETV
vector 624 RSUExampleScenario2.node[120].veinsmobility speed ETV
vector 625 RSUExampleScenario2.node[121].veinsmobility speed ETV
vector 626 RSUExampleScenario2.node[122].veinsmobility speed ETV
vector 627 RSUExampleScenario2.node[123].veinsmobility speed ETV
vector 628 RSUExampleScenario2.node[124].veinsmobility speed ETV
vector 629 RSUExampleScenario2.node[125].veinsmobility speed ETV
vector 630 RSUExampleScenario2.node[126].veinsmobility speed ETV
vector 631 RSUExampleScenario2.node[127].veinsmobility speed ETV
vector 632 RSUExampleScenario2.node[128].veinsmobility speed ETV
vector 633 RSUExampleScenario2.node[129].veinsmobility speed ETV
vector 634 RSUExampleScenario2.node[130].veinsmobility speed ETV
vector 635 RSUExampleScenario2.node[131].veinsmobility speed ETV
vector 636 RSUExampleScenario2.node[132].veinsmobility speed ETV
vector 637 RSUExampleScenario2.node[133].veinsmobility speed ETV
vector 638 RSUExampleScenario2.node[134].veinsmobility speed ETV
vector 639 RSUExampleScenario2.node[135].veinsmobility speed ETV
vector 640 RSUExampleScenario2.node[136].veinsmobility speed ETV
vector 641 RSUExampleScenario2.node[137].veinsmobility speed ETV
vector 642 RSUExampleScenario2.node[138].veinsmobility speed ETV
vector 643 RSUExampleScenario2.node[139].veinsmobility speed ETV
vector 644 RSUExampleScenario2.node[140].veinsmobility speed ETV
vector 645 RSUExampleScenario2.node[141].veinsmobility speed ETV
vector 646 RSUExampleScenario2.node[142].veinsmobility speed ETV
vector 647 RSUExampleScenario2.node[143].veinsmobility speed ETV
vector 648 RSUExampleScenario2.node[144].veinsmobility speed ETV
vector 649 RSUExampleScenario2.node[145].veinsmobility speed ETV
vector 650 RSUExampleScenario2.node[146].veinsmobility speed ETV
vector 651 RSUExampleScenario2.node[147].veinsmobility speed ETV
vector 652 RSUExampleScenario2.node[148].veinsmobility speed ETV
vector 653 RSUExampleScenario2.node[149].veinsmobility speed ETV
vector 654 RSUExampleScenario2.node[150].veinsmobility speed ETV
vector 655 RSUExampleScenario2.node[151].veinsmobility speed ETV
vector 656 RSUExampleScenario2.node[152].veinsmobility speed ETV
vector 657 RSUExampleScenario2.node[153].veinsmobility speed ETV
vector 658 RSUExampleScenario2.node[154].veinsmobility speed ETV
vector 659 RSUExampleScenario2.node[155].veinsmobility speed ETV
vector 660 RSUExampleScenario2.node[156].veinsmobility speed ETV
vector 661 RSUExampleScenario2.node[157].veinsmobility speed ETV
vector 662 RSUExampleScenario2.node[158].veinsmobility speed ETV
vector 663 RSUExampleScenario2.node[159].veinsmobility speed ETV
vector 664 RSUExampleScenario2.node[160].veinsmobility speed ETV
vector 665 RSUExampleScenario2.node[161].veinsmobility speed ETV
vector 666 RSUExampleScenario2.node[162].veinsmobility speed ETV
vector 667 RSUExampleScenario2.node[163].veinsmobility speed ETV
vector 668 RSUExampleScenario2.node[164].veinsmobility speed ETV
vector 669 RSUExampleScenario2.node[165].veinsmobility speed ETV
vector 670 RSUExampleScenario2.node[166].veinsmobility speed ETV
vector 671 RSUExampleScenario2.node[167].veinsmobility speed ETV
vector 672 RSUExampleScenario2.node[168].veinsmobility speed ETV
vector 673 RSUExampleScenario2.node[169].veinsmobility speed ETV
vector 674 RSUExampleScenario2.node[170].veinsmobility speed ETV
vector 675 RSUExampleScenario2.node[171].veinsmobility speed ETV
vector 676 RSUExampleScenario2.node[172].veinsmobility speed ETV
vector 677 RSUExampleScenario2.node[173].veinsmobility speed ETV
vector 678 RSUExampleScenario2.node[174].veinsmobility speed ETV
vector 679 RSUExampleScenario2.node[175].veinsmobility speed ETV
vector 680 RSUExampleScenario2.node[176].veinsmobility speed ETV
vector 681 RSUExampleScenario2.node[177].veinsmobility speed ETV
vector 682 RSUExampleScenario2.node[178].veinsmobility speed ETV
vector 683 RSUExampleScenario2.node[179].veinsmobility speed ETV
vector 684 RSUExampleScenario2.node[180].veinsmobility speed ETV
vector 685 RSUExampleScenario2.node[181].veinsmobility speed ETV
vector 686 RSUExampleScenario2.node[182].veinsmobility speed ETV
vector 687 RSUExampleScenario2.node[183].veinsmobility speed ETV
vector 688 RSUExampleScenario2.node[184].veinsmobility speed ETV
vector 689 RSUExampleScenario2.node[185].veinsmobility speed ETV
vector 690 RSUExampleScenario2.node[186].veinsmobility speed ETV
vector 691 RSUExampleScenario2.node[187].veinsmobility speed ETV
vector 692 RSUExampleScenario2.node[188].veinsmobility speed ETV
vector 693 RSUExampleScenario2.node[189].veinsmobility speed ETV
vector 694 RSUExampleScenario2.node[190].veinsmobility speed ETV
vector 695 RSUExampleScenario2.node[191].veinsmobility speed ETV
vector 696 RSUExampleScenario2.node[192].veinsmobility speed ETV
vector 697 RSUExampleScenario2.node[193].veinsmobility speed ETV
vector 698 RSUExampleScenario2.node[194].veinsmobility speed ETV
vector 699 RSUExampleScenario2.node[195].veinsmobility speed ETV
vector 700 RSUExampleScenario2.node[196].veinsmobility speed ETV
vector 701 RSUExampleScenario2.node[197].veinsmobility speed ETV
vector 702 RSUExampleScenario2.node[198].veinsmobility speed ETV
vector 703 RSUExampleScenario2.node[199].veinsmobility speed ETV
vector 704 RSUExampleScenario2.node[200].veinsmobility speed ETV
vector 705 RSUExampleScenario2.node[201].veinsmobility speed ETV
vector 706 RSUExampleScenario2.node[202].veinsmobility speed ETV
vector 707 RSUExampleScenario2.node[203].veinsmobility speed ETV
vector 708 RSUExampleScenario2.node[204].veinsmobility speed ETV
vector 709 RSUExampleScenario2.node[205].veinsmobility speed ETV
vector 710 RSUExampleScenario2.node[206].veinsmobility speed ETV
vector 711 RSUExampleScenario2.node[207].veinsmobility speed ETV
vector 712 RSUExampleScenario2.node[208].veinsmobility speed ETV
vector 713 RSUExampleScenario2.node[209].veinsmobility speed ETV
vector 714 RSUExampleScenario2.node[210].veinsmobility speed ETV
vector 715 RSUExampleScenario2.node[211].veinsmobility speed ETV
vector 716 RSUExampleScenario2.node[212].veinsmobility speed ETV
vector 717 RSUExampleScenario2.node[213].veinsmobility speed ETV
vector 718 RSUExampleScenario2.node[214].veinsmobility speed ETV
vector 719 RSUExampleScenario2.node[215].veinsmobility speed ETV
vector 720 RSUExampleScenario2.node[216].veinsmobility speed ETV
vector 721 RSUExampleScenario2.node[217].veinsmobility speed ETV
vector 722 RSUExampleScenario2.node[218].veinsmobility speed ETV
vector 723 RSUExampleScenario2.node[219].veinsmobility speed ETV
vector 724 RSUExampleScenario2.node[220].veinsmobility speed ETV
vector 725 RSUExampleScenario2.node[221].veinsmobility speed ETV
vector 726 RSUExampleScenario2.node[222].veinsmobility speed ETV
vector 727 RSUExampleScenario2.node[223].veinsmobility speed ETV
vector 728 RSUExampleScenario2.node[224].veinsmobility speed ETV
vector 729 RSUExampleScenario2.node[225].veinsmobility speed ETV
vector 730 RSUExampleScenario2.node[226].veinsmobility speed ETV
vector 731 RSUExampleScenario2.node[227].veinsmobility speed ETV
vector 732 RSUExampleScenario2.node[228].veinsmobility speed ETV
vector 733 RSUExampleScenario2.node[229].veinsmobility speed ETV
vector 734 RSUExampleScenario2.node[230].veinsmobility speed ETV
vector 735 RSUExampleScenario2.node[231].veinsmobility speed ETV
vector 736 RSUExampleScenario2.node[232].veinsmobility speed ETV
vector 737 RSUExampleScenario2.node[233].veinsmobility speed ETV
vector 738 RSUExampleScenario2.node[234].veinsmobility speed ETV
vector 739 RSUExampleScenario2.node[235].veinsmobility speed ETV
vector 740 RSUExampleScenario2.node[236].veinsmobility speed ETV
vector 741 RSUExampleScenario2.node[237].veinsmobility speed ETV
vector 742 RSUExampleScenario2.node[238].veinsmobility speed ETV
vector 743 RSUExampleScenario2.node[239].veinsmobility speed ETV
vector 744 RSUExampleScenario2.node[240].veinsmobility speed ETV
vector 745 RSUExampleScenario2.node[241].veinsmobility speed ETV
vector 746 RSUExampleScenario2.node[242].veinsmobility speed ETV
vector 747 RSUExampleScenario2.node[243].veinsmobility speed ETV
vector 748 RSUExampleScenario2.node[244].veinsmobility speed ETV
vector 749 RSUExampleScenario2.node[245].veinsmobility speed ETV
vector 750 RSUExampleScenario2.node[246].veinsmobility speed ETV
vector 751 RSUExampleScenario2.node[247].veinsmobility speed ETV
vector 752 RSUExampleScenario2.node[248].veinsmobility speed ETV
vector 753 RSUExampleScenario2.node[249].veinsmobility speed ETV
vector 754 RSUExampleScenario2.node[250].veinsmobility speed ETV
vector 755 RSUExampleScenario2.node[251].veinsmobility speed ETV
vector 756 RSUExampleScenario2.node[252].veinsmobility posx ETV
vector 757 RSUExampleScenario2.node[252].veinsmobility posy ETV
vector 758 RSUExampleScenario2.node[253].veinsmobility posx ETV
vector 759 RSUExampleScenario2.node[253].veinsmobility posy ETV
vector 760 RSUExampleScenario2.node[0].veinsmobility acceleration ETV
vector 761 RSUExampleScenario2.node[0].veinsmobility co2emission ETV
vector 762 RSUExampleScenario2.node[1].veinsmobility acceleration ETV
vector 763 RSUExampleScenario2.node[1].veinsmobility co2emission ETV
vector 764 RSUExampleScenario2.node[2].veinsmobility acceleration ETV
vector 765 RSUExampleScenario2.node[2].veinsmobility co2emission ETV
vector 766 RSUExampleScenario2.node[3].veinsmobility acceleration ETV
vector 767 RSUExampleScenario2.node[3].veinsmobility co2emission ETV
vector 768 RSUExampleScenario2.node[4].veinsmobility acceleration ETV
vector 769 RSUExampleScenario2.node[4].veinsmobility co2emission ETV
vector 770 RSUExampleScenario2.node[5].veinsmobility acceleration ETV
vector 771 RSUExampleScenario2.node[5].veinsmobility co2emission ETV
vector 772 RSUExampleScenario2.node[6].veinsmobility acceleration ETV
vector 773 RSUExampleScenario2.node[6].veinsmobility co2emission ETV
vector 774 RSUExampleScenario2.node[7].veinsmobility acceleration ETV
vector 775 RSUExampleScenario2.node[7].veinsmobility co2emission ETV
vector 776 RSUExampleScenario2.node[8].veinsmobility acceleration ETV
vector 777 RSUExampleScenario2.node[8].veinsmobility co2emission ETV
vector 778 RSUExampleScenario2.node[9].veinsmobility acceleration ETV
vector 779 RSUExampleScenario2.node[9].veinsmobility co2emission ETV
vector 780 RSUExampleScenario2.node[10].veinsmobility acceleration ETV
vector 781 RSUExampleScenario2.node[10].veinsmobility co2emission ETV
vector 782 RSUExampleScenario2.node[11].veinsmobility acceleration ETV
vector 783 RSUExampleScenario2.node[11].veinsmobility co2emission ETV
vector 784 RSUExampleScenario2.node[12].veinsmobility acceleration ETV
vector 785 RSUExampleScenario2.node[12].veinsmobility co2emission ETV
vector 786 RSUExampleScenario2.node[13].veinsmobility acceleration ETV
vector 787 RSUExampleScenario2.node[13].veinsmobility co2emission ETV
vector 788 RSUExampleScenario2.node[14].veinsmobility acceleration ETV
vector 789 RSUExampleScenario2.node[14].veinsmobility co2emission ETV
vector 790 RSUExampleScenario2.node[15].veinsmobility acceleration ETV
vector 791 RSUExampleScenario2.node[15].veinsmobility co2emission ETV
vector 792 RSUExampleScenario2.node[16].veinsmobility acceleration ETV
vector 793 RSUExampleScenario2.node[16].veinsmobility co2emission ETV
vector 794 RSUExampleScenario2.node[17].veinsmobility acceleration ETV
vector 795 RSUExampleScenario2.node[17].veinsmobility co2emission ETV
vector 796 RSUExampleScenario2.node[18].veinsmobility acceleration ETV
vector 797 RSUExampleScenario2.node[18].veinsmobility co2emission ETV
vector 798 RSUExampleScenario2.node[19].veinsmobility acceleration ETV
vector 799 RSUExampleScenario2.node[19].veinsmobility co2emission ETV
vector 800 RSUExampleScenario2.node[20].veinsmobility acceleration ETV
vector 801 RSUExampleScenario2.node[20].veinsmobility co2emission ETV
vector 802 RSUExampleScenario2.node[21].veinsmobility acceleration ETV
vector 803 RSUExampleScenario2.node[21].veinsmobility co2emission ETV
vector 804 RSUExampleScenario2.node[22].veinsmobility acceleration ETV
vector 805 RSUExampleScenario2.node[22].veinsmobility co2emission ETV
vector 806 RSUExampleScenario2.node[23].veinsmobility acceleration ETV
vector 807 RSUExampleScenario2.node[23].veinsmobility co2emission ETV
vector 808 RSUExampleScenario2.node[24].veinsmobility acceleration ETV
vector 809 RSUExampleScenario2.node[24].veinsmobility co2emission ETV
vector 810 RSUExampleScenario2.node[25].veinsmobility acceleration ETV
vector 811 RSUExampleScenario2.node[25].veinsmobility co2emission ETV
vector 812 RSUExampleScenario2.node[26].veinsmobility acceleration ETV
vector 813 RSUExampleScenario2.node[26].veinsmobility co2emission ETV
vector 814 RSUExampleScenario2.node[27].veinsmobility acceleration ETV
vector 815 RSUExampleScenario2.node[27].veinsmobility co2emission ETV
vector 816 RSUExampleScenario2.node[28].veinsmobility acceleration ETV
vector 817 RSUExampleScenario2.node[28].veinsmobility co2emission ETV
vector 818 RSUExampleScenario2.node[29].veinsmobility acceleration ETV
vector 819 RSUExampleScenario2.node[29].veinsmobility co2emission ETV
vector 820 RSUExampleScenario2.node[30].veinsmobility acceleration ETV
vector 821 RSUExampleScenario2.node[30].veinsmobility co2emission ETV
vector 822 RSUExampleScenario2.node[31].veinsmobility acceleration ETV
vector 823 RSUExampleScenario2.node[31].veinsmobility co2emission ETV
vector 824 RSUExampleScenario2.node[32].veinsmobility acceleration ETV
vector 825 RSUExampleScenario2.node[32].veinsmobility co2emission ETV
vector 826 RSUExampleScenario2.node[33].veinsmobility acceleration ETV
vector 827 RSUExampleScenario2.node[33].veinsmobility co2emission ETV
vector 828 RSUExampleScenario2.node[34].veinsmobility acceleration ETV
vector 829 RSUExampleScenario2.node[34].veinsmobility co2emission ETV
vector 830 RSUExampleScenario2.node[35].veinsmobility acceleration ETV
vector 831 RSUExampleScenario2.node[35].veinsmobility co2emission ETV
vector 832 RSUExampleScenario2.node[36].veinsmobility acceleration ETV
vector 833 RSUExampleScenario2.node[36].veinsmobility co2emission ETV
vector 834 RSUExampleScenario2.node[37].veinsmobility acceleration ETV
vector 835 RSUExampleScenario2.node[37].veinsmobility co2emission ETV
vector 836 RSUExampleScenario2.node[38].veinsmobility acceleration ETV
vector 837 RSUExampleScenario2.node[38].veinsmobility co2emission ETV
vector 838 RSUExampleScenario2.node[39].veinsmobility acceleration ETV
vector 839 RSUExampleScenario2.node[39].veinsmobility co2emission ETV
vector 840 RSUExampleScenario2.node[40].veinsmobility acceleration ETV
vector 841 RSUExampleScenario2.node[40].veinsmobility co2emission ETV
vector 842 RSUExampleScenario2.node[41].veinsmobility acceleration ETV
vector 843 RSUExampleScenario2.node[41].veinsmobility co2emission ETV
vector 844 RSUExampleScenario2.node[42].veinsmobility acceleration ETV
vector 845 RSUExampleScenario2.node[42].veinsmobility co2emission ETV
vector 846 RSUExampleScenario2.node[43].veinsmobility acceleration ETV
vector 847 RSUExampleScenario2.node[43].veinsmobility co2emission ETV
vector 848 RSUExampleScenario2.node[44].veinsmobility acceleration ETV
vector 849 RSUExampleScenario2.node[44].veinsmobility co2emission ETV
vector 850 RSUExampleScenario2.node[45].veinsmobility acceleration ETV
vector 851 RSUExampleScenario2.node[45].veinsmobility co2emission ETV
vector 852 RSUExampleScenario2.node[46].veinsmobility acceleration ETV
vector 853 RSUExampleScenario2.node[46].veinsmobility co2emission ETV
vector 854 RSUExampleScenario2.node[47].veinsmobility acceleration ETV
vector 855 RSUExampleScenario2.node[47].veinsmobility co2emission ETV
vector 856 RSUExampleScenario2.node[48].veinsmobility acceleration ETV
vector 857 RSUExampleScenario2.node[48].veinsmobility co2emission ETV
vector 858 RSUExampleScenario2.node[49].veinsmobility acceleration ETV
vector 859 RSUExampleScenario2.node[49].veinsmobility co2emission ETV
vector 860 RSUExampleScenario2.node[50].veinsmobility acceleration ETV
vector 861 RSUExampleScenario2.node[50].veinsmobility co2emission ETV
vector 862 RSUExampleScenario2.node[51].veinsmobility acceleration ETV
vector 863 RSUExampleScenario2.node[51].veinsmobility co2emission ETV
vector 864 RSUExampleScenario2.node[52].veinsmobility acceleration ETV
vector 865 RSUExampleScenario2.node[52].veinsmobility co2emission ETV
vector 866 RSUExampleScenario2.node[53].veinsmobility acceleration ETV
vector 867 RSUExampleScenario2.node[53].veinsmobility co2emission ETV
vector 868 RSUExampleScenario2.node[54].veinsmobility acceleration ETV
vector 869 RSUExampleScenario2.node[54].veinsmobility co2emission ETV
vector 870 RSUExampleScenario2.node[55].veinsmobility acceleration ETV
vector 871 RSUExampleScenario2.node[55].veinsmobility co2emission ETV
vector 872 RSUExampleScenario2.node[56].veinsmobility acceleration ETV
vector 873 RSUExampleScenario2.node[56].veinsmobility co2emission ETV
vector 874 RSUExampleScenario2.node[57].veinsmobility acceleration ETV
vector 875 RSUExampleScenario2.node[57].veinsmobility co2emission ETV
vector 876 RSUExampleScenario2.node[58].veinsmobility acceleration ETV
vector 877 RSUExampleScenario2.node[58].veinsmobility co2emission ETV
vector 878 RSUExampleScenario2.node[59].veinsmobility acceleration ETV
vector 879 RSUExampleScenario2.node[59].veinsmobility co2emission ETV
vector 880 RSUExampleScenario2.node[60].veinsmobility acceleration ETV
vector 881 RSUExampleScenario2.node[60].veinsmobility co2emission ETV
vector 882 RSUExampleScenario2.node[61].veinsmobility acceleration ETV
vector 883 RSUExampleScenario2.node[61].veinsmobility co2emission ETV
vector 884 RSUExampleScenario2.node[62].veinsmobility acceleration ETV
vector 885 RSUExampleScenario2.node[62].veinsmobility co2emission ETV
vector 886 RSUExampleScenario2.node[63].veinsmobility acceleration ETV
vector 887 RSUExampleScenario2.node[63].veinsmobility co2emission ETV
vector 888 RSUExampleScenario2.node[64].veinsmobility acceleration ETV
vector 889 RSUExampleScenario2.node[64].veinsmobility co2emission ETV
vector 890 RSUExampleScenario2.node[65].veinsmobility acceleration ETV
vector 891 RSUExampleScenario2.node[65].veinsmobility co2emission ETV
vector 892 RSUExampleScenario2.node[66].veinsmobility acceleration ETV
vector 893 RSUExampleScenario2.node[66].veinsmobility co2emission ETV
vector 894 RSUExampleScenario2.node[67].veinsmobility acceleration ETV
vector 895 RSUExampleScenario2.node[67].veinsmobility co2emission ETV
vector 896 RSUExampleScenario2.node[68].veinsmobility acceleration ETV
vector 897 RSUExampleScenario2.node[68].veinsmobility co2emission ETV
vector 898 RSUExampleScenario2.node[69].veinsmobility acceleration ETV
vector 899 RSUExampleScenario2.node[69].veinsmobility co2emission ETV
vector 900 RSUExampleScenario2.node[70].veinsmobility acceleration ETV
vector 901 RSUExampleScenario2.node[70].veinsmobility co2emission ETV
vector 902 RSUExampleScenario2.node[71].veinsmobility acceleration ETV
vector 903 RSUExampleScenario2.node[71].veinsmobility co2emission ETV
vector 904 RSUExampleScenario2.node[72].veinsmobility acceleration ETV
vector 905 RSUExampleScenario2.node[72].veinsmobility co2emission ETV
vector 906 RSUExampleScenario2.node[73].veinsmobility acceleration ETV
vector 907 RSUExampleScenario2.node[73].veinsmobility co2emission ETV
vector 908 RSUExampleScenario2.node[74].veinsmobility acceleration ETV
vector 909 RSUExampleScenario2.node[74].veinsmobility co2emission ETV
vector 910 RSUExampleScenario2.node[75].veinsmobility acceleration ETV
vector 911 RSUExampleScenario2.node[75].veinsmobility co2emission ETV
vector 912 RSUExampleScenario2.node[76].veinsmobility acceleration ETV
vector 913 RSUExampleScenario2.node[76].veinsmobility co2emission ETV
vector 914 RSUExampleScenario2.node[77].veinsmobility acceleration ETV
vector 915 RSUExampleScenario2.node[77].veinsmobility co2emission ETV
vector 916 RSUExampleScenario2.node[78].veinsmobility acceleration ETV
vector 917 RSUExampleScenario2.node[78].veinsmobility co2emission ETV
vector 918 RSUExampleScenario2.node[79].veinsmobility acceleration ETV
vector 919 RSUExampleScenario2.node[79].veinsmobility co2emission ETV
vector 920 RSUExampleScenario2.node[80].veinsmobility acceleration ETV
vector 921 RSUExampleScenario2.node[80].veinsmobility co2emission ETV
vector 922 RSUExampleScenario2.node[81].veinsmobility acceleration ETV
vector 923 RSUExampleScenario2.node[81].veinsmobility co2emission ETV
vector 924 RSUExampleScenario2.node[82].veinsmobility acceleration ETV
vector 925 RSUExampleScenario2.node[82].veinsmobility co2emission ETV
vector 926 RSUExampleScenario2.node[83].veinsmobility acceleration ETV
vector 927 RSUExampleScenario2.node[83].veinsmobility co2emission ETV
vector 928 RSUExampleScenario2.node[84].veinsmobility acceleration ETV
vector 929 RSUExampleScenario2.node[84].veinsmobility co2emission ETV
vector 930 RSUExampleScenario2.node[85].veinsmobility acceleration ETV
vector 931 RSUExampleScenario2.node[85].veinsmobility co2emission ETV
vector 932 RSUExampleScenario2.node[86].veinsmobility acceleration ETV
vector 933 RSUExampleScenario2.node[86].veinsmobility co2emission ETV
vector 934 RSUExampleScenario2.node[87].veinsmobility acceleration ETV
vector 935 RSUExampleScenario2.node[87].veinsmobility co2emission ETV
vector 936 RSUExampleScenario2.node[88].veinsmobility acceleration ETV
vector 937 RSUExampleScenario2.node[88].veinsmobility co2emission ETV
vector 938 RSUExampleScenario2.node[89].veinsmobility acceleration ETV
vector 939 RSUExampleScenario2.node[89].veinsmobility co2emission ETV
vector 940 RSUExampleScenario2.node[90].veinsmobility acceleration ETV
vector 941 RSUExampleScenario2.node[90].veinsmobility co2emission ETV
vector 942 RSUExampleScenario2.node[91].veinsmobility acceleration ETV
vector 943 RSUExampleScenario2.node[91].veinsmobility co2emission ETV
vector 944 RSUExampleScenario2.node[92].veinsmobility acceleration ETV
vector 945 RSUExampleScenario2.node[92].veinsmobility co2emission ETV
vector 946 RSUExampleScenario2.node[93].veinsmobility acceleration ETV
vector 947 RSUExampleScenario2.node[93].veinsmobility co2emission ETV
vector 948 RSUExampleScenario2.node[94].veinsmobility acceleration ETV
vector 949 RSUExampleScenario2.node[94].veinsmobility co2emission ETV
vector 950 RSUExampleScenario2.node[95].veinsmobility acceleration ETV
vector 951 RSUExampleScenario2.node[95].veinsmobility co2emission ETV
vector 952 RSUExampleScenario2.node[96].veinsmobility acceleration ETV
vector 953 RSUExampleScenario2.node[96].veinsmobility co2emission ETV
vector 954 RSUExampleScenario2.node[97].veinsmobility acceleration ETV
vector 955 RSUExampleScenario2.node[97].veinsmobility co2emission ETV
vector 956 RSUExampleScenario2.node[98].veinsmobility acceleration ETV
vector 957 RSUExampleScenario2.node[98].veinsmobility co2emission ETV
vector 958 RSUExampleScenario2.node[99].veinsmobility acceleration ETV
vector 959 RSUExampleScenario2.node[99].veinsmobility co2emission ETV
vector 960 RSUExampleScenario2.node[100].veinsmobility acceleration ETV
vector 961 RSUExampleScenario2.node[100].veinsmobility co2emission ETV
vector 962 RSUExampleScenario2.node[101].veinsmobility acceleration ETV
vector 963 RSUExampleScenario2.node[101].veinsmobility co2emission ETV
vector 964 RSUExampleScenario2.node[102].veinsmobility acceleration ETV
vector 965 RSUExampleScenario2.node[102].veinsmobility co2emission ETV
vector 966 RSUExampleScenario2.node[103].veinsmobility acceleration ETV
vector 967 RSUExampleScenario2.node[103].veinsmobility co2emission ETV
vector 968 RSUExampleScenario2.node[104].veinsmobility acceleration ETV
vector 969 RSUExampleScenario2.node[104].veinsmobility co2emission ETV
vector 970 RSUExampleScenario2.node[105].veinsmobility acceleration ETV
vector 971 RSUExampleScenario2.node[105].veinsmobility co2emission ETV
vector 972 RSUExampleScenario2.node[106].veinsmobility acceleration ETV
vector 973 RSUExampleScenario2.node[106].veinsmobility co2emission ETV
vector 974 RSUExampleScenario2.node[107].veinsmobility acceleration ETV
vector 975 RSUExampleScenario2.node[107].veinsmobility co2emission ETV
vector 976 RSUExampleScenario2.node[108].veinsmobility acceleration ETV
vector 977 RSUExampleScenario2.node[108].veinsmobility co2emission ETV
vector 978 RSUExampleScenario2.node[109].veinsmobility acceleration ETV
vector 979 RSUExampleScenario2.node[109].veinsmobility co2emission ETV
vector 980 RSUExampleScenario2.node[110].veinsmobility acceleration ETV
vector 981 RSUExampleScenario2.node[110].veinsmobility co2emission ETV
vector 982 RSUExampleScenario2.node[111].veinsmobility acceleration ETV
vector 983 RSUExampleScenario2.node[111].veinsmobility co2emission ETV
vector 984 RSUExampleScenario2.node[112].veinsmobility acceleration ETV
vector 985 RSUExampleScenario2.node[112].veinsmobility co2emission ETV
vector 986 RSUExampleScenario2.node[113].veinsmobility acceleration ETV
vector 987 RSUExampleScenario2.node[113].veinsmobility co2emission ETV
vector 988 RSUExampleScenario2.node[114].veinsmobility acceleration ETV
vector 989 RSUExampleScenario2.node[114].veinsmobility co2emission ETV
vector 990 RSUExampleScenario2.node[115].veinsmobility acceleration ETV
vector 991 RSUExampleScenario2.node[115].veinsmobility co2emission ETV
vector 992 RSUExampleScenario2.node[116].veinsmobility acceleration ETV
vector 993 RSUExampleScenario2.node[116].veinsmobility co2emission ETV
vector 994 RSUExampleScenario2.node[117].veinsmobility acceleration ETV
vector 995 RSUExampleScenario2.node[117].veinsmobility co2emission ETV
vector 996 RSUExampleScenario2.node[118].veinsmobility acceleration ETV
vector 997 RSUExampleScenario2.node[118].veinsmobility co2emission ETV
vector 998 RSUExampleScenario2.node[119].veinsmobility acceleration ETV
vector 999 RSUExampleScenario2.node[119].veinsmobility co2emission ETV
vector 1000 RSUExampleScenario2.node[120].veinsmobility acceleration ETV
vector 1001 RSUExampleScenario2.node[120].veinsmobility co2emission ETV
vector 1002 RSUExampleScenario2.node[121].veinsmobility acceleration ETV
vector 1003 RSUExampleScenario2.node[121].veinsmobility co2emission ETV
vector 1004 RSUExampleScenario2.node[122].veinsmobility acceleration ETV
vector 1005 RSUExampleScenario2.node[122].veinsmobility co2emission ETV
vector 1006 RSUExampleScenario2.node[123].veinsmobility acceleration ETV
vector 1007 RSUExampleScenario2.node[123].veinsmobility co2emission ETV
vector 1008 RSUExampleScenario2.node[124].veinsmobility acceleration ETV
vector 1009 RSUExampleScenario2.node[124].veinsmobility co2emission ETV
vector 1010 RSUExampleScenario2.node[125].veinsmobility acceleration ETV
vector 1011 RSUExampleScenario2.node[125].veinsmobility co2emission ETV
vector 1012 RSUExampleScenario2.node[126].veinsmobility acceleration ETV
vector 1013 RSUExampleScenario2.node[126].veinsmobility co2emission ETV
vector 1014 RSUExampleScenario2.node[127].veinsmobility acceleration ETV
vector 1015 RSUExampleScenario2.node[127].veinsmobility co2emission ETV
vector 1016 RSUExampleScenario2.node[128].veinsmobility acceleration ETV
vector 1017 RSUExampleScenario2.node[128].veinsmobility co2emission ETV
vector 1018 RSUExampleScenario2.node[129].veinsmobility acceleration ETV
[...]
1505	83087	374	19.92745900664
1505	83202	375	19.936471595545
1505	83431	376	19.987005699542
1505	83548	377	19.925619548606
1505	83795	378	19.925666897115
1505	83912	379	19.990780263371
1506	81366	363	27.884014967953
1506	81607	364	27.884014967953
1506	81730	365	29.673406172901
1506	81983	366	32.926258380515
1506	82100	367	37.651229735108
1506	82215	368	43.831454658783
1506	82338	369	51.396316496365
1506	82459	370	60.279935071275
1506	82712	371	70.577167431683
1506	82829	372	82.405247696666
1506	82944	373	95.790322221796
1506	83087	374	110.61479097339
1506	83202	375	126.88729586114
1506	83431	376	144.55463464017
1506	83548	377	162.58864335042
1506	83795	378	180.61819423941
1506	83912	379	198.65143841146
1507	81366	363	26.6
1507	81607	364	26.6
1507	81730	365	26.6
1507	81983	366	26.6
1507	82100	367	26.6
1507	82215	368	26.6
1507	82338	369	26.6
1507	82459	370	26.6
1507	82712	371	26.6
1507	82829	372	26.6
1507	82944	373	26.6
1507	83087	374	26.6
1507	83202	375	26.6
1507	83431	376	26.6
1507	83548	377	26.6
1507	83795	378	29.8
1507	83912	379	29.8
1508	81366	363	10022.122752376
1508	81607	364	10022.122752376
1508	81730	365	10020.320072693
1508	81983	366	10016.960506512
1508	82100	367	10012.088958171
1508	82215	368	10005.509221443
1508	82338	369	9997.4809365209
1508	82459	370	9987.9374058022
1508	82712	371	9976.8765878806
1508	82829	372	9964.370307389
1508	82944	373	9950.4720239131
1508	83087	374	9935.2149617427
1508	83202	375	9918.4570619998
1508	83431	376	9900.2076259671
1508	83548	377	9880.5499055382
1508	83795	378	9860.5930571545
1508	83912	379	9840.6393451551
1509	81366	363	20.2
1509	81607	364	20.2
1509	81730	365	20.2
1509	81983	366	20.2
1509	82100	367	20.2
1509	82215	368	20.2
1509	82338	369	20.2
1509	82459	370	20.2
1509	82712	371	20.2
1509	82829	372	20.2
1509	82944	373	20.2
1509	83087	374	20.2
1509	83202	375	20.2
1509	83431	376	20.2
1509	83548	377	20.2
1509	83795	378	20.2
1509	83912	379	20.2
1510	81366	363	1.527230699081
1510	81607	364	1.6138879664475
1510	81730	365	1.4545849926304
1510	81983	366	1.40545984169
1510	82100	367	1.426225123764
1510	82215	368	1.6596926714294
1510	82338	369	1.4376377098728
1510	82459	370	1.5046189521672
1510	82712	371	1.6078942420194
1510	82829	372	1.3921780756675
1510	82944	373	1.4969526146771
1510	83087	374	0.3309122846794
1510	83202	375	0.041266210493632
1510	83431	376	-0.014917525672352
1510	83548	377	0.015924185607581
1510	83795	378	-0.070856689871288
1510	83912	379	0.045688275969585
1511	81366	363	3.0449488858263
1511	81607	364	3.8604292515137
1511	81730	365	4.2205886123131
1511	81983	366	4.7008727722386
1511	82100	367	5.3435648029177
1511	82215	368	6.7391633189394
1511	82338	369	6.7209047821566
1511	82459	370	7.6452526010807
1511	82712	371	8.8356124764036
1511	82829	372	8.6171097925455
1511	82944	373	9.8350230768884
1511	83087	374	4.3983336101383
1511	83202	375	3.0122747868033
1511	83431	376	2.7391879933607
1511	83548	377	2.8903068188578
1511	83795	378	2.4620249856288
1511	83912	379	3.029480159904
1512	81366	363	1.4636172010563
1512	81607	364	1.5850025516469
1512	81730	365	1.6227059616009
1512	81983	366	1.423805712373
1512	82100	367	1.534229338984
1512	82215	368	1.5056587303989
1512	82338	369	1.5470816018758
1512	82459	370	1.458705030405
1512	82712	371	1.5250658699777
1512	82829	372	1.5424670323497
1512	82944	373	1.4254775916459
1512	83087	374	0.016889243804137
1512	83202	375	0.009012588905172
1512	83431	376	0.050534103997052
1512	83548	377	-0.061386150936595
1512	83795	378	4.7348509543355e-05
1512	83912	379	0.065113366255535
1513	81366	363	3.0205948964841
1513	81607	364	3.8547167205837
1513	81730	365	4.6480705431091
1513	81983	366	4.8539837140597
1513	82100	367	5.7884733494579
1513	82215	368	6.389160252977
1513	82338	369	7.2391466144262
1513	82459	370	7.6123013031701
1513	82712	371	8.6036971329848
1513	82829	372	9.4567639123986
1513	82944	373	9.6397265497482
1513	83087	374	2.883430178265
1513	83202	375	2.8470490490185
1513	83431	376	3.0551807792678
1513	83548	377	2.5072472760816
1513	83795	378	2.8022630000991
1513	83912	379	3.1260664465346
1514	81607	364	2.4508735906299
1514	81730	365	3.894286495793
1514	81983	366	5.4024646606961
1514	82100	367	6.8401532916784
1514	82215	368	8.1681456574438
1514	82338	369	9.5017182834412
1514	82459	370	10.97151306057
1514	82712	371	12.525909759264
1514	82829	372	14.092803213579
1514	82944	373	15.500579108574
1514	83087	374	16.887309615986
1514	83202	375	18.045875422273
1514	83431	376	18.00728193872
1514	83548	377	18.077598138166
1514	83795	378	18.077309250634
1514	83912	379	18.013260847482
1515	81607	364	2.5418497272261
1515	81730	365	4.0032800172415
1515	81983	366	5.6331521337346
1515	82100	367	7.2130510713166
1515	82215	368	8.6759186772356
1515	82338	369	10.242963201432
1515	82459	370	11.766137962947
1515	82712	371	13.127659476568
1515	82829	372	14.514909857344
1515	82944	373	15.930194999995
1515	83087	374	17.444345620666
1515	83202	375	18.956085057599
1515	83431	376	19.982556139608
1515	83548	377	19.948691858724
1515	83795	378	19.909335569385
1515	83912	379	19.970753761148
1516	81730	365	27.6
1516	81983	366	27.6
1516	82100	367	28.585761023537
1516	82215	368	31.213214610552
1516	82338	369	35.329418395747
1516	82459	370	41.039693405147
1516	82712	371	48.284684026674
1516	82829	372	57.10616225118
1516	82944	373	67.473391296885
1516	83087	374	79.328736221518
1516	83202	375	92.626198346064
1516	83431	376	107.36146363394
1516	83548	377	123.64454107805
1516	83795	378	141.49491880254
1516	83912	379	159.92192846923
1517	81730	365	29.8
1517	81983	366	29.8
1517	82100	367	29.8
1517	82215	368	29.8
1517	82338	369	29.8
1517	82459	370	29.8
1517	82712	371	29.8
1517	82829	372	29.8
1517	82944	373	29.8
1517	83087	374	29.8
1517	83202	375	29.8
1517	83431	376	29.8
1517	83548	377	29.8
1517	83795	378	29.8
1517	83912	379	29.8
1518	81730	365	10022.380937775
1518	81983	366	10022.380937775
1518	82100	367	10021.197513946
1518	82215	368	10018.438085865
1518	82338	369	10014.168530399
1518	82459	370	10008.481657792
1518	82712	371	10001.195706428
1518	82829	372	9992.3114390557
1518	82944	373	9981.9296471714
1518	83087	374	9970.0077359065
1518	83202	375	9956.4406946354
1518	83431	376	9941.220600791
1518	83548	377	9924.3854506704
1518	83795	378	9906.0864210251
1518	83912	379	9886.4253823656
1519	81730	365	20.2
1519	81983	366	20.2
1519	82100	367	20.2
1519	82215	368	20.2
1519	82338	369	20.2
1519	82459	370	20.2
1519	82712	371	20.2
1519	82829	372	20.2
1519	82944	373	20.2
1519	83087	374	20.2
1519	83202	375	20.2
1519	83431	376	20.2
1519	83548	377	20.2
1519	83795	378	20.2
1519	83912	379	20.2
1520	81730	365	1.4434129051631
1520	81983	366	1.5081781649031
1520	82100	367	1.4376886309823
1520	82215	368	1.3279923657654
1520	82338	369	1.3335726259975
1520	82459	370	1.4697947771288
1520	82712	371	1.5543966986937
1520	82829	372	1.5668934543151
1520	82944	373	1.4077758949948
1520	83087	374	1.386730507412
1520	83202	375	1.1585658062872
1520	83431	376	-0.038593483553271
1520	83548	377	0.070316199446097
1520	83795	378	-0.00028888753149658
1520	83912	379	-0.064048403152263
1521	81730	365	2.6579924304142
1521	81983	366	3.3488200662971
1521	82100	367	3.839530031311
1521	82215	368	4.1685584658804
1521	82338	369	4.7013759850534
1521	82459	370	5.6476045783921
1521	82712	371	6.5881277733946
1521	82829	372	7.3701419076593
1521	82944	373	7.4607372298804
1521	83087	374	8.0133088287006
1521	83202	375	7.5620839686112
1521	83431	376	2.3505927740771
1521	83548	377	2.8341614235351
1521	83795	378	2.5265160804052
1521	83912	379	2.2408582676185
1522	81730	365	1.4614302900154
1522	81983	366	1.6298721164931
1522	82100	367	1.579898937582
1522	82215	368	1.462867605919
1522	82338	369	1.5670445241965
1522	82459	370	1.5231747615151
1522	82712	371	1.3615215136204
1522	82829	372	1.3872503807768
1522	82944	373	1.4152851426508
1522	83087	374	1.514150620671
1522	83202	375	1.5117394369328
1522	83431	376	1.0264710820088
1522	83548	377	-0.033864280884156
1522	83795	378	-0.039356289338318
1522	83912	379	0.061418191762641
1523	81730	365	2.7190190695517
1523	81983	366	3.6109538421252
1523	82100	367	4.2390355631724
1523	82215	368	4.647558955
1523	82338	369	5.5717319816752
1523	82459	370	6.147251148992
1523	82712	371	6.2598080529462
1523	82829	372	6.9454287040331
1523	82944	373	7.6854557815864
1523	83087	374	8.8075211258816
1523	83202	375	9.559940285098
1523	83431	376	7.7543328624139
1523	83548	377	2.6428756746663
1523	83795	378	2.6106149315731
1523	83912	379	3.1047856460939
1524	81983	366	1.7531970001486
1524	82100	367	3.2741978575515
1524	82215	368	4.8028000451198
1524	82338	369	6.3320850714615
1524	82459	370	7.975150305968
1524	82712	371	9.5580090385668
1524	82829	372	11.061044136322
1524	82944	373	12.511377611551
1524	83087	374	13.908472476391
1524	83202	375	15.486859815339
1524	83431	376	17.003642621105
1524	83548	377	18.454643410911
1524	83795	378	18.386843912886
1524	83912	379	18.414552455908
1525	81983	366	1.8968691469899
1525	82100	367	3.4022955353402
1525	82215	368	4.9508754554235
1525	82338	369	6.4074291053258
1525	82459	370	8.0204771693128
1525	82712	371	9.5293419230294
1525	82829	372	11.087846350184
1525	82944	373	12.629568053738
1525	83087	374	14.32006541875
1525	83202	375	15.981445510688
1525	83431	376	17.528854922185
1525	83548	377	18.975029664466
1525	83795	378	19.996989720571
1525	83912	379	19.910537381028
1526	82100	367	1.5210008574029
1526	82215	368	1.5286021875683
1526	82338	369	1.5292850263417
1526	82459	370	1.6430652345065
1526	82712	371	1.5828587325988
1526	82829	372	1.5030350977555
1526	82944	373	1.4503334752284
1526	83087	374	1.3970948648406
1526	83202	375	1.5783873389475
1526	83431	376	1.516782805766
1526	83548	377	1.451000789806
1526	83795	378	-0.067799498024396
1526	83912	379	0.027708543022161
1527	82100	367	2.471383777827
1527	82215	368	3.1212398565892
1527	82338	369	3.7726522228994
1527	82459	370	4.6995696743438
1527	82712	371	5.2978251891793
1527	82829	372	5.7752576156038
1527	82944	373	6.2675758995935
1527	83087	374	6.7124738971103
1527	83202	375	8.0912868520191
1527	83431	376	8.5999956624928
1527	83548	377	9.0342951115918
1527	83795	378	2.2707873062308
1527	83912	379	2.6981270529269
1528	82100	367	1.5054263883503
1528	82215	368	1.5485799200833
1528	82338	369	1.4565536499023
1528	82459	370	1.6130480639869
1528	82712	371	1.5088647537166
1528	82829	372	1.5585044271545
1528	82944	373	1.5417217035545
1528	83087	374	1.6904973650118
1528	83202	375	1.6613800919382
1528	83431	376	1.5474094114965
1528	83548	377	1.4461747422814
1528	83795	378	1.0219600561045
1528	83912	379	-0.08645233954303
1529	82100	367	2.5121441759443
1529	82215	368	3.2077457121188
1529	82338	369	3.6925915629177
1529	82459	370	4.6624869900106
1529	82712	371	5.1148505986102
1529	82829	372	5.935393671073
1529	82944	373	6.5979251353334
1529	83087	374	7.9062095791079
1529	83202	375	8.6568665191561
1529	83431	376	8.9900980024196
1529	83548	377	9.2698185413175
1529	83795	378	7.7384582324125
1529	83912	379	2.3848059891664
1530	82215	368	28.108033385164
1530	82338	369	28.108033385164
1530	82459	370	30.140917073862
1530	82712	371	33.585716075641
1530	82829	372	38.566989139336
1530	82944	373	45.089199981214
1530	83087	374	53.046728026812
1530	83202	375	62.527782756823
1530	83431	376	73.569793734795
1530	83548	377	86.212359058172
1530	83795	378	99.833772103368
1530	83912	379	113.50476389444
1531	82215	368	26.6
1531	82338	369	26.6
1531	82459	370	26.6
1531	82712	371	26.6
1531	82829	372	26.6
1531	82944	373	26.6
1531	83087	374	26.6
1531	83202	375	26.6
1531	83431	376	26.6
1531	83548	377	26.6
1531	83795	378	26.6
1531	83912	379	26.6
1532	82215	368	10021.891507619
1532	82338	369	10021.891507619
1532	82459	370	10019.835093826
1532	82712	371	10016.296134329
1532	82829	372	10011.261982426
1532	82944	373	10004.714516018
1532	83087	374	9996.7320047098
1532	83202	375	9987.4234504316
1532	83431	376	9976.6355571233
1532	83548	377	9964.2927437926
1532	83795	378	9950.4983445445
1532	83912	379	9935.1448132262
1533	82215	368	23.4
1533	82338	369	23.4
1533	82459	370	23.4
1533	82712	371	23.4
1533	82829	372	23.4
1533	82944	373	23.4
1533	83087	374	23.4
1533	83202	375	23.4
1533	83431	376	23.4
1533	83548	377	23.4
1533	83795	378	23.4
1533	83912	379	23.4
1534	82338	369	2.6575099318997
1534	82459	370	4.1532820605916
1534	82712	371	5.6881360943439
1534	82829	372	7.1947568721148
1534	82944	373	8.60360129641
1534	83087	374	10.170888338239
1534	83202	375	11.772701804248
1534	83431	376	13.197230824946
1534	83548	377	13.65206413851
1534	83795	378	13.645774636486
1534	83912	379	13.662585925147
1535	82338	369	2.6586109600165
1535	82459	370	4.2599726354838
1535	82712	371	5.6941046763579
1535	82829	372	7.2354677720363
1535	82944	373	8.5725120705687
1535	83087	374	9.9640398143692
1535	83202	375	11.451079834615
1535	83431	376	13.019055897523
1535	83548	377	14.503003488471
1535	83795	378	16.001675649397
1535	83912	379	17.49932558035
1536	82459	370	27.657347581002
1536	82712	371	27.657347581002
1536	82829	372	29.0180128506
1536	82944	373	31.927311496986
1536	83087	374	36.354130215283
1536	83202	375	42.345559715219
1536	83431	376	49.917627490699
1536	83548	377	59.071203996159
1536	83795	378	69.78000837474
1536	83912	379	81.852574010894
1537	82459	370	26.6
1537	82712	371	26.6
1537	82829	372	26.6
1537	82944	373	26.6
1537	83087	374	26.6
1537	83202	375	26.6
1537	83431	376	26.6
1537	83548	377	26.6
1537	83795	378	26.6
1537	83912	379	26.6
1538	82459	370	10022.342930267
1538	82712	371	10022.342930267
1538	82829	372	10020.996439004
1538	82944	373	10017.993690992
1538	83087	374	10013.349087616
1538	83202	375	10007.217712526
1538	83431	376	9999.5365785501
1538	83548	377	9990.2421968562
1538	83795	378	9979.4546815433
1538	83912	379	9967.1756163205
1539	82459	370	20.2
1539	82712	371	20.2
1539	82829	372	20.2
1539	82944	373	20.2
1539	83087	374	20.2
1539	83202	375	20.2
1539	83431	376	20.2
1539	83548	377	20.2
1539	83795	378	20.2
1539	83912	379	20.2
1540	82459	370	1.4957721286919
1540	82712	371	1.5348540337523
1540	82829	372	1.5066207777709
1540	82944	373	1.4088444242952
1540	83087	374	1.567287041829
1540	83202	375	1.6018134660087
1540	83431	376	1.4245290206978
1540	83548	377	0.45483331356433
1540	83795	378	-0.0062895020237193
1540	83912	379	0.016811288660392
1541	82459	370	2.8141522498238
1541	82712	371	3.505437534261
1541	82829	372	4.1038646486594
1541	82944	373	4.5050634216059
1541	83087	374	5.5395489287945
1541	83202	375	6.3733446492777
1541	83431	376	6.4897302232174
1541	83548	377	3.5000982476153
1541	83795	378	1.9823175979369
1541	83912	379	2.0600352909272
1542	82459	370	1.6013616754673
1542	82712	371	1.4341320408741
1542	82829	372	1.5413630956784
1542	82944	373	1.3370442985324
1542	83087	374	1.3915277438005
1542	83202	375	1.4870400202461
1542	83431	376	1.5679760629078
1542	83548	377	1.4839475909481
1542	83795	378	1.4986721609253
1542	83912	379	1.497649930953
1543	82459	370	2.9666860574494
1543	82712	371	3.3697681123708
1543	82829	372	4.1817796727681
1543	82944	373	4.3440351428281
1543	83087	374	5.023573471527
1543	83202	375	5.9049110194774
1543	83431	376	6.8615593586976
1543	83548	377	7.2781574930417
1543	83795	378	8.0399086840833
1543	83912	379	8.7652984511779
1544	82712	371	2.051380464622
1544	82829	372	3.6533765696
1544	82944	373	5.0998138771171
1544	83087	374	6.6763204716157
1544	83202	375	8.2584181664756
1544	83431	376	9.8838675326446
1544	83548	377	11.35324993271
1544	83795	378	12.719240811119
1544	83912	379	14.192998411391
1545	82712	371	2.0796031590728
1545	82829	372	3.7693597925072
1545	82944	373	5.3375359730506
1545	83087	374	6.858358650486
1545	83202	375	8.3736068758592
1545	83431	376	9.9854145398074
1545	83548	377	11.470310188615
1545	83795	378	12.940261566913
1545	83912	379	14.35284556073
1546	82829	372	1.601996104978
1546	82944	373	1.446437307517
1546	83087	374	1.5765065944986
1546	83202	375	1.5820976948598
1546	83431	376	1.625449366169
1546	83548	377	1.4693824000657
1546	83795	378	1.3659908784088
1546	83912	379	1.4737576002721
1547	82829	372	2.7012429867289
1547	82944	373	3.1460190444925
1547	83087	374	3.9961447428802
1547	83202	375	4.709232694577
1547	83431	376	5.5478354437452
1547	83548	377	5.8132932835475
1547	83795	378	6.1008872895609
1547	83912	379	7.0997929795558
1548	82829	372	1.6897566334344
1548	82944	373	1.5681761805434
1548	83087	374	1.5208226774354
1548	83202	375	1.5152482253732
1548	83431	376	1.6118076639483
1548	83548	377	1.4848956488073
1548	83795	378	1.469951378298
1548	83912	379	1.4125839938177
1549	82829	372	2.8317827705985
1549	82944	373	3.3987475320434
1549	83087	374	3.984362103309
1549	83202	375	4.62601203911
1549	83431	376	5.5624624617329
1549	83548	377	5.9075026279396
1549	83795	378	6.5186043735761
1549	83912	379	6.9617007417881
1550	82944	373	28.275397685397
1550	83087	374	28.275397685397
1550	83202	375	30.568631328513
1550	83431	376	34.303842019032
1550	83548	377	39.580075826778
1550	83795	378	46.457255185924
1550	83912	379	54.808960448461
1551	82944	373	26.6
1551	83087	374	26.6
1551	83202	375	26.6
1551	83431	376	26.6
1551	83548	377	26.6
1551	83795	378	26.6
1551	83912	379	26.6
1552	82944	373	10021.580859301
1552	83087	374	10021.580859301
1552	83202	375	10019.177505782
1552	83431	376	10015.410203859
1552	83548	377	10010.221506635
1552	83795	378	10003.527852148
1552	83912	379	9995.2745531028
1553	82944	373	23.4
1553	83087	374	23.4
1553	83202	375	23.4
1553	83431	376	23.4
1553	83548	377	23.4
1553	83795	378	23.4
1553	83912	379	23.4
1554	83087	374	2.9417629040679
1554	83202	375	4.4576028420724
1554	83431	376	5.9305592667911
1554	83548	377	7.5843695007865
1554	83795	378	8.9544707914483
1554	83912	379	10.428094919715
1555	83087	374	2.9988670328149
1555	83202	375	4.405146121069
1555	83431	376	5.8364025236788
1555	83548	377	7.4316847097577
1555	83795	378	8.9371037127665
1555	83912	379	10.368046820767
1556	83202	375	27.880093984028
1556	83431	376	27.880093984028
1556	83548	377	29.727823744172
1556	83795	378	33.189525250811
1556	83912	379	38.145286004263
1557	83202	375	29.8
1557	83431	376	29.8
1557	83548	377	29.8
1557	83795	378	29.8
1557	83912	379	29.8
1558	83202	375	10022.115178585
1558	83431	376	10022.115178585
1558	83548	377	10020.340561255
1558	83795	378	10017.018152098
1558	83912	379	10012.052717164
1559	83202	375	20.2
1559	83431	376	20.2
1559	83548	377	20.2
1559	83795	378	20.2
1559	83912	379	20.2
1560	83202	375	1.5158399380045
1560	83431	376	1.4729564247187
1560	83548	377	1.6538102339953
1560	83795	378	1.3701012906618
1560	83912	379	1.4736241282662
1561	83202	375	2.9616570798467
1561	83431	376	3.5206039449281
1561	83548	377	4.5390614099381
1561	83795	378	4.5650072025718
1561	83912	379	5.4212786412706
1562	83202	375	1.4062790882541
1562	83431	376	1.4312564026099
1562	83548	377	1.5952821860788
1562	83795	378	1.5054190030089
1562	83912	379	1.4309431080008
1563	83202	375	2.8233635283733
1563	83431	376	3.4230804202282
1563	83548	377	4.3636293681273
1563	83795	378	4.849502698962
1563	83912	379	5.2886099142732
1564	83431	376	2.6196318838577
1564	83548	377	4.184358072916
1564	83795	378	5.639838743193
1564	83912	379	7.1599100865488
1565	83431	376	2.4593539303329
1565	83548	377	4.0419657587002
1565	83795	378	5.7043405005403
1565	83912	379	7.2264543793558
1566	83548	377	27.619852509892
1566	83795	378	27.619852509892
1566	83912	379	28.773547199601
1567	83548	377	26.6
1567	83795	378	26.6
1567	83912	379	26.6
1568	83548	377	10022.380740712
1568	83795	378	10022.380740712
1568	83912	379	10021.199365575
1569	83548	377	23.4
1569	83795	378	23.4
1569	83912	379	23.4
1570	83548	377	1.5647261890583
1570	83795	378	1.455480670277
1570	83912	379	1.5200713433558
1571	83548	377	2.8965387091195
1571	83795	378	3.3769287201652
1571	83912	379	4.112242902106
1572	83548	377	1.5826118283672
1572	83795	378	1.6623747418402
1572	83912	379	1.5221138788154
1573	83548	377	2.8527286591433
1573	83795	378	3.6876675476768
1573	83912	379	4.144342101232
1574	83795	378	1.8814124045652
1574	83912	379	3.3259860838289
1575	83795	378	1.938525309918
1575	83912	379	3.5680579245244
1576	83912	379	1.4445736792637
1577	83912	379	2.4317607351448
1578	83912	379	1.6295326146064
1579	83912	379	2.6875577210496

