file 3242591 1582694965                                         
version 2
run WithBeaconing-0-20200226-05:26:57-10873
attr configname WithBeaconing
attr datetime 20200226-05:26:57
attr experiment WithBeaconing
attr inifile omnetpp.ini
attr iterationvars ""
attr iterationvarsf ""
attr measurement ""
attr network RSUExampleScenario2
attr processid 10873
attr repetition 0
attr replication #0
attr resultdir results
attr runnumber 0
attr seedset 0
param *.rsu[*].appl.sendBeacons true
param *.node[*].appl.sendBeacons true
param *.playgroundSizeX 11000m
param *.playgroundSizeY 2000m
param *.playgroundSizeZ 50m
param *.annotations.draw true
param *.manager.updateInterval 1s
param *.manager.host "\"localhost\""
param *.manager.port 9999
param *.manager.autoShutdown true
param *.manager.launchConfig "xmldoc(\"myVeinsAPP.launchd.xml\")"
param *.rsu[0].mobility.x 2000
param *.rsu[0].mobility.y 50
param *.rsu[0].mobility.z 3
param *.rsu[*].applType "\"TraCIDemoRSU11p\""
param *.rsu[*].appl.headerLength "80 bit"
param *.rsu[*].appl.sendBeacons false
param *.rsu[*].appl.dataOnSch false
param *.rsu[*].appl.beaconInterval 1s
param *.rsu[*].appl.beaconUserPriority 7
param *.rsu[*].appl.dataUserPriority 5
param *.rsu[*].nic.phy80211p.antennaOffsetZ "0 m"
param *.connectionManager.sendDirect true
param *.connectionManager.maxInterfDist 300m
param *.connectionManager.drawMaxIntfDist false
param *.**.nic.mac1609_4.useServiceChannel false
param *.**.nic.mac1609_4.txPower 20mW
param *.**.nic.mac1609_4.bitrate 6Mbps
param *.**.nic.phy80211p.minPowerLevel -110dBm
param *.**.nic.phy80211p.useNoiseFloor true
param *.**.nic.phy80211p.noiseFloor -98dBm
param *.**.nic.phy80211p.decider "xmldoc(\"config2.xml\")"
param *.**.nic.phy80211p.analogueModels "xmldoc(\"config2.xml\")"
param *.**.nic.phy80211p.usePropagationDelay true
param *.**.nic.phy80211p.antenna "xmldoc(\"antenna.xml\", \"/root/Antenna[@id='monopole']\")"
param *.node[*].nic.phy80211p.antennaOffsetY "0 m"
param *.node[*].nic.phy80211p.antennaOffsetZ "1.895 m"
param *.node[*].applType "\"MyVeinsApp\""
param *.node[*].appl.headerLength "80 bit"
param *.node[*].appl.sendBeacons false
param *.node[*].appl.dataOnSch false
param *.node[*].appl.beaconInterval 1s
param *.node[*].veinsmobility.x 0
param *.node[*].veinsmobility.y 0
param *.node[*].veinsmobility.z 0
param *.node[*].veinsmobility.setHostSpeed true
param *.node[*0].veinsmobility.accidentCount 5
param *.node[*0].veinsmobility.accidentStart 73s
param *.node[*0].veinsmobility.accidentDuration 20s

vector 0 RSUExampleScenario2.node[0].veinsmobility posx ETV
vector 1 RSUExampleScenario2.node[0].veinsmobility posy ETV
vector 2 RSUExampleScenario2.node[1].veinsmobility posx ETV
vector 3 RSUExampleScenario2.node[1].veinsmobility posy ETV
vector 4 RSUExampleScenario2.node[2].veinsmobility posx ETV
vector 5 RSUExampleScenario2.node[2].veinsmobility posy ETV
vector 6 RSUExampleScenario2.node[3].veinsmobility posx ETV
vector 7 RSUExampleScenario2.node[3].veinsmobility posy ETV
vector 8 RSUExampleScenario2.node[4].veinsmobility posx ETV
vector 9 RSUExampleScenario2.node[4].veinsmobility posy ETV
vector 10 RSUExampleScenario2.node[5].veinsmobility posx ETV
vector 11 RSUExampleScenario2.node[5].veinsmobility posy ETV
vector 12 RSUExampleScenario2.node[6].veinsmobility posx ETV
vector 13 RSUExampleScenario2.node[6].veinsmobility posy ETV
vector 14 RSUExampleScenario2.node[7].veinsmobility posx ETV
vector 15 RSUExampleScenario2.node[7].veinsmobility posy ETV
vector 16 RSUExampleScenario2.node[8].veinsmobility posx ETV
vector 17 RSUExampleScenario2.node[8].veinsmobility posy ETV
vector 18 RSUExampleScenario2.node[9].veinsmobility posx ETV
vector 19 RSUExampleScenario2.node[9].veinsmobility posy ETV
vector 20 RSUExampleScenario2.node[10].veinsmobility posx ETV
vector 21 RSUExampleScenario2.node[10].veinsmobility posy ETV
vector 22 RSUExampleScenario2.node[11].veinsmobility posx ETV
vector 23 RSUExampleScenario2.node[11].veinsmobility posy ETV
vector 24 RSUExampleScenario2.node[12].veinsmobility posx ETV
vector 25 RSUExampleScenario2.node[12].veinsmobility posy ETV
vector 26 RSUExampleScenario2.node[13].veinsmobility posx ETV
vector 27 RSUExampleScenario2.node[13].veinsmobility posy ETV
vector 28 RSUExampleScenario2.node[14].veinsmobility posx ETV
vector 29 RSUExampleScenario2.node[14].veinsmobility posy ETV
vector 30 RSUExampleScenario2.node[15].veinsmobility posx ETV
vector 31 RSUExampleScenario2.node[15].veinsmobility posy ETV
vector 32 RSUExampleScenario2.node[16].veinsmobility posx ETV
vector 33 RSUExampleScenario2.node[16].veinsmobility posy ETV
vector 34 RSUExampleScenario2.node[17].veinsmobility posx ETV
vector 35 RSUExampleScenario2.node[17].veinsmobility posy ETV
vector 36 RSUExampleScenario2.node[18].veinsmobility posx ETV
vector 37 RSUExampleScenario2.node[18].veinsmobility posy ETV
vector 38 RSUExampleS
enario2.node[19].veinsmobility posx ETV
vector 39 RSUExampleScenario2.node[19].veinsmobility posy ETV
vector 40 RSUExampleScenario2.node[20].veinsmobility posx ETV
vector 41 RSUExampleScenario2.node[20].veinsmobility posy ETV
vector 42 RSUExampleScenario2.node[21].veinsmobility posx ETV
vector 43 RSUExampleScenario2.node[21].veinsmobility posy ETV
vector 44 RSUExampleScenario2.node[22].veinsmobility posx ETV
vector 45 RSUExampleScenario2.node[22].veinsmobility posy ETV
vector 46 RSUExampleScenario2.node[23].veinsmobility posx ETV
vector 47 RSUExampleScenario2.node[23].veinsmobility posy ETV
vector 48 RSUExampleScenario2.node[24].veinsmobility posx ETV
vector 49 RSUExampleScenario2.node[24].veinsmobility posy ETV
vector 50 RSUExampleScenario2.node[25].veinsmobility posx ETV
vector 51 RSUExampleScenario2.node[25].veinsmobility posy ETV
vector 52 RSUExampleScenario2.node[26].veinsmobility posx ETV
vector 53 RSUExampleScenario2.node[26].veinsmobility posy ETV
vector 54 RSUExampleScenario2.node[27].veinsmobility posx ETV
vector 55 RSUExampleScenario2.node[27].veinsmobility posy ETV
vector 56 RSUExampleScenario2.node[28].veinsmobility posx ETV
vector 57 RSUExampleScenario2.node[28].veinsmobility posy ETV
vector 58 RSUExampleScenario2.node[29].veinsmobility posx ETV
vector 59 RSUExampleScenario2.node[29].veinsmobility posy ETV
vector 60 RSUExampleScenario2.node[30].veinsmobility posx ETV
vector 61 RSUExampleScenario2.node[30].veinsmobility posy ETV
vector 62 RSUExampleScenario2.node[31].veinsmobility posx ETV
vector 63 RSUExampleScenario2.node[31].veinsmobility posy ETV
vector 64 RSUExampleScenario2.node[32].veinsmobility posx ETV
vector 65 RSUExampleScenario2.node[32].veinsmobility posy ETV
vector 66 RSUExampleScenario2.node[33].veinsmobility posx ETV
vector 67 RSUExampleScenario2.node[33].veinsmobility posy ETV
vector 68 RSUExampleScenario2.node[34].veinsmobility posx ETV
vector 69 RSUExampleScenario2.node[34].veinsmobility posy ETV
vector 70 RSUExampleScenario2.node[35].veinsmobility posx ETV
vector 71 RSUExampleScenario2.node[35].veinsmobility posy ETV
vector 72 RSUExampleScenario2.node[36].veinsmobility posx ETV
vector 73 RSUExampleScenario2.node[36].veinsmobility posy ETV
vector 74 RSUExampleScenario2.node[37].veinsmobility posx ETV
vector 75 RSUExampleScenario2.node[37].veinsmobility posy ETV
vector 76 RSUExampleScenario2.node[38].veinsmobility posx ETV
vector 77 RSUExampleScenario2.node[38].veinsmobility posy ETV
vector 78 RSUExampleScenario2.node[39].veinsmobility posx ETV
vector 79 RSUExampleScenario2.node[39].veinsmobility posy ETV
vector 80 RSUExampleScenario2.node[40].veinsmobility posx ETV
vector 81 RSUExampleScenario2.node[40].veinsmobility posy ETV
vector 82 RSUExampleScenario2.node[41].veinsmobility posx ETV
vector 83 RSUExampleScenario2.node[41].veinsmobility posy ETV
vector 84 RSUExampleScenario2.node[42].veinsmobility posx ETV
vector 85 RSUExampleScenario2.node[42].veinsmobility posy ETV
vector 86 RSUExampleScenario2.node[43].veinsmobility posx ETV
vector 87 RSUExampleScenario2.node[43].veinsmobility posy ETV
vector 88 RSUExampleScenario2.node[44].veinsmobility posx ETV
vector 89 RSUExampleScenario2.node[44].veinsmobility posy ETV
vector 90 RSUExampleScenario2.node[45].veinsmobility posx ETV
vector 91 RSUExampleScenario2.node[45].veinsmobility posy ETV
vector 92 RSUExampleScenario2.node[46].veinsmobility posx ETV
vector 93 RSUExampleScenario2.node[46].veinsmobility posy ETV
vector 94 RSUExampleScenario2.node[47].veinsmobility posx ETV
vector 95 RSUExampleScenario2.node[47].veinsmobility posy ETV
vector 96 RSUExampleScenario2.node[48].veinsmobility posx ETV
vector 97 RSUExampleScenario2.node[48].veinsmobility posy ETV
vector 98 RSUExampleScenario2.node[49].veinsmobility posx ETV
vector 99 RSUExampleScenario2.node[49].veinsmobility posy ETV
vector 100 RSUExampleScenario2.node[50].veinsmobility posx ETV
vector 101 RSUExampleScenario2.node[50].veinsmobility posy ETV
vector 102 RSUExampleScenario2.node[51].veinsmobility posx ETV
vector 103 RSUExampleScenario2.node[51].veinsmobility posy ETV
vector 104 RSUExampleScenario2.node[52].veinsmobility posx ETV
vector 105 RSUExampleScenario2.node[52].veinsmobility posy ETV
vector 106 RSUExampleScenario2.node[53].veinsmobility posx ETV
vector 107 RSUExampleScenario2.node[53].veinsmobility posy ETV
vector 108 RSUExampleScenario2.node[54].veinsmobility posx ETV
vector 109 RSUExampleScenario2.node[54].veinsmobility posy ETV
vector 110 RSUExampleScenario2.node[55].veinsmobility posx ETV
vector 111 RSUExampleScenario2.node[55].veinsmobility posy ETV
vector 112 RSUExampleScenario2.node[56].veinsmobility posx ETV
vector 113 RSUExampleScenario2.node[56].veinsmobility posy ETV
vector 114 RSUExampleScenario2.node[57].veinsmobility posx ETV
vector 115 RSUExampleScenario2.node[57].veinsmobility posy ETV
vector 116 RSUExampleScenario2.node[58].veinsmobility posx ETV
vector 117 RSUExampleScenario2.node[58].veinsmobility posy ETV
vector 118 RSUExampleScenario2.node[59].veinsmobility posx ETV
vector 119 RSUExampleScenario2.node[59].veinsmobility posy ETV
vector 120 RSUExampleScenario2.node[60].veinsmobility posx ETV
vector 121 RSUExampleScenario2.node[60].veinsmobility posy ETV
vector 122 RSUExampleScenario2.node[61].veinsmobility posx ETV
vector 123 RSUExampleScenario2.node[61].veinsmobility posy ETV
vector 124 RSUExampleScenario2.node[62].veinsmobility posx ETV
vector 125 RSUExampleScenario2.node[62].veinsmobility posy ETV
vector 126 RSUExampleScenario2.node[63].veinsmobility posx ETV
vector 127 RSUExampleScenario2.node[63].veinsmobility posy ETV
vector 128 RSUExampleScenario2.node[64].veinsmobility posx ETV
vector 129 RSUExampleScenario2.node[64].veinsmobility posy ETV
vector 130 RSUExampleScenario2.node[65].veinsmobility posx ETV
vector 131 RSUExampleScenario2.node[65].veinsmobility posy ETV
vector 132 RSUExampleScenario2.node[66].veinsmobility posx ETV
vector 133 RSUExampleScenario2.node[66].veinsmobility posy ETV
vector 134 RSUExampleScenario2.node[67].veinsmobility posx ETV
vector 135 RSUExampleScenario2.node[67].veinsmobility posy ETV
vector 136 RSUExampleScenario2.node[68].veinsmobility posx ETV
vector 137 RSUExampleScenario2.node[68].veinsmobility posy ETV
vector 138 RSUExampleScenario2.node[69].veinsmobility posx ETV
vector 139 RSUExampleScenario2.node[69].veinsmobility posy ETV
vector 140 RSUExampleScenario2.node[70].veinsmobility posx ETV
vector 141 RSUExampleScenario2.node[70].veinsmobility posy ETV
vector 142 RSUExampleScenario2.node[71].veinsmobility posx ETV
vector 143 RSUExampleScenario2.node[71].veinsmobility posy ETV
vector 144 RSUExampleScenario2.node[72].veinsmobility posx ETV
vector 145 RSUExampleScenario2.node[72].veinsmobility posy ETV
vector 146 RSUExampleScenario2.node[73].veinsmobility posx ETV
vector 147 RSUExampleScenario2.node[73].veinsmobility posy ETV
vector 148 RSUExampleScenario2.node[74].veinsmobility posx ETV
vector 149 RSUExampleScenario2.node[74].veinsmobility posy ETV
vector 150 RSUExampleScenario2.node[75].veinsmobility posx ETV
vector 151 RSUExampleScenario2.node[75].veinsmobility posy ETV
vector 152 RSUExampleScenario2.node[76].veinsmobility posx ETV
vector 153 RSUExampleScenario2.node[76].veinsmobility posy ETV
vector 154 RSUExampleScenario2.node[77].veinsmobility posx ETV
vector 155 RSUExampleScenario2.node[77].veinsmobility posy ETV
vector 156 RSUExampleScenario2.node[78].veinsmobility posx ETV
vector 157 RSUExampleScenario2.node[78].veinsmobility posy ETV
vector 158 RSUExampleScenario2.node[79].veinsmobility posx ETV
vector 159 RSUExampleScenario2.node[79].veinsmobility posy ETV
vector 160 RSUExampleScenario2.node[80].veinsmobility posx ETV
vector 161 RSUExampleScenario2.node[80].veinsmobility posy ETV
vector 162 RSUExampleScenario2.node[81].veinsmobility posx ETV
vector 163 RSUExampleScenario2.node[81].veinsmobility posy ETV
vector 164 RSUExampleScenario2.node[82].veinsmobility posx ETV
vector 165 RSUExampleScenario2.node[82].veinsmobility posy ETV
vector 166 RSUExampleScenario2.node[83].veinsmobility posx ETV
vector 167 RSUExampleScenario2.node[83].veinsmobility posy ETV
vector 168 RSUExampleScenario2.node[84].veinsmobility posx ETV
vector 169 RSUExampleScenario2.node[84].veinsmobility posy ETV
vector 170 RSUExampleScenario2.node[85].veinsmobility posx ETV
vector 171 RSUExampleScenario2.node[85].veinsmobility posy ETV
vector 172 RSUExampleScenario2.node[86].veinsmobility posx ETV
vector 173 RSUExampleScenario2.node[86].veinsmobility posy ETV
vector 174 RSUExampleScenario2.node[87].veinsmobility posx ETV
vector 175 RSUExampleScenario2.node[87].veinsmobility posy ETV
vector 176 RSUExampleScenario2.node[88].veinsmobility posx ETV
vector 177 RSUExampleScenario2.node[88].veinsmobility posy ETV
vector 178 RSUExampleScenario2.node[89].veinsmobility posx ETV
vector 179 RSUExampleScenario2.node[89].veinsmobility posy ETV
vector 180 RSUExampleScenario2.node[90].veinsmobility posx ETV
vector 181 RSUExampleScenario2.node[90].veinsmobility posy ETV
vector 182 RSUExampleScenario2.node[91].veinsmobility posx ETV
vector 183 RSUExampleScenario2.node[91].veinsmobility posy ETV
vector 184 RSUExampleScenario2.node[92].veinsmobility posx ETV
vector 185 RSUExampleScenario2.node[92].veinsmobility posy ETV
vector 186 RSUExampleScenario2.node[93].veinsmobility posx ETV
vector 187 RSUExampleScenario2.node[93].veinsmobility posy ETV
vector 188 RSUExampleScenario2.node[94].veinsmobility posx ETV
vector 189 RSUExampleScenario2.node[94].veinsmobility posy ETV
vector 190 RSUExampleScenario2.node[95].veinsmobility posx ETV
vector 191 RSUExampleScenario2.node[95].veinsmobility posy ETV
vector 192 RSUExampleScenario2.node[96].veinsmobility posx ETV
vector 193 RSUExampleScenario2.node[96].veinsmobility posy ETV
vector 194 RSUExampleScenario2.node[97].veinsmobility posx ETV
vector 195 RSUExampleScenario2.node[97].veinsmobility posy ETV
vector 196 RSUExampleScenario2.node[98].veinsmobility posx ETV
vector 197 RSUExampleScenario2.node[98].veinsmobility posy ETV
vector 198 RSUExampleScenario2.node[99].veinsmobility posx ETV
vector 199 RSUExampleScenario2.node[99].veinsmobility posy ETV
vector 200 RSUExampleScenario2.node[100].veinsmobility posx ETV
vector 201 RSUExampleScenario2.node[100].veinsmobility posy ETV
vector 202 RSUExampleScenario2.node[101].veinsmobility posx ETV
vector 203 RSUExampleScenario2.node[101].veinsmobility posy ETV
vector 204 RSUExampleScenario2.node[102].veinsmobility posx ETV
vector 205 RSUExampleScenario2.node[102].veinsmobility posy ETV
vector 206 RSUExampleScenario2.node[103].veinsmobility posx ETV
vector 207 RSUExampleScenario2.node[103].veinsmobility posy ETV
vector 208 RSUExampleScenario2.node[104].veinsmobility posx ETV
vector 209 RSUExampleScenario2.node[104].veinsmobility posy ETV
vector 210 RSUExampleScenario2.node[105].veinsmobility posx ETV
vector 211 RSUExampleScenario2.node[105].veinsmobility posy ETV
vector 212 RSUExampleScenario2.node[106].veinsmobility posx ETV
vector 213 RSUExampleScenario2.node[106].veinsmobility posy ETV
vector 214 RSUExampleScenario2.node[107].veinsmobility posx ETV
vector 215 RSUExampleScenario2.node[107].veinsmobility posy ETV
vector 216 RSUExampleScenario2.node[108].veinsmobility posx ETV
vector 217 RSUExampleScenario2.node[108].veinsmobility posy ETV
vector 218 RSUExampleScenario2.node[109].veinsmobility posx ETV
vector 219 RSUExampleScenario2.node[109].veinsmobility posy ETV
vector 220 RSUExampleScenario2.node[110].veinsmobility posx ETV
vector 221 RSUExampleScenario2.node[110].veinsmobility posy ETV
vector 222 RSUExampleScenario2.node[111].veinsmobility posx ETV
vector 223 RSUExampleScenario2.node[111].veinsmobility posy ETV
vector 224 RSUExampleScenario2.node[112].veinsmobility posx ETV
vector 225 RSUExampleScenario2.node[112].veinsmobility posy ETV
vector 226 RSUExampleScenario2.node[113].veinsmobility posx ETV
vector 227 RSUExampleScenario2.node[113].veinsmobility posy ETV
vector 228 RSUExampleScenario2.node[114].veinsmobility posx ETV
vector 229 RSUExampleScenario2.node[114].veinsmobility posy ETV
vector 230 RSUExampleScenario2.node[115].veinsmobility posx ETV
vector 231 RSUExampleScenario2.node[115].veinsmobility posy ETV
vector 232 RSUExampleScenario2.node[116].veinsmobility posx ETV
vector 233 RSUExampleScenario2.node[116].veinsmobility posy ETV
vector 234 RSUExampleScenario2.node[117].veinsmobility posx ETV
vector 235 RSUExampleScenario2.node[117].veinsmobility posy ETV
vector 236 RSUExampleScenario2.node[118].veinsmobility posx ETV
vector 237 RSUExampleScenario2.node[118].veinsmobility posy ETV
vector 238 RSUExampleScenario2.node[119].veinsmobility posx ETV
vector 239 RSUExampleScenario2.node[119].veinsmobility posy ETV
vector 240 RSUExampleScenario2.node[120].veinsmobility posx ETV
vector 241 RSUExampleScenario2.node[120].veinsmobility posy ETV
vector 242 RSUExampleScenario2.node[121].veinsmobility posx ETV
vector 243 RSUExampleScenario2.node[121].veinsmobility posy ETV
vector 244 RSUExampleScenario2.node[122].veinsmobility posx ETV
vector 245 RSUExampleScenario2.node[122].veinsmobility posy ETV
vector 246 RSUExampleScenario2.node[123].veinsmobility posx ETV
vector 247 RSUExampleScenario2.node[123].veinsmobility posy ETV
vector 248 RSUExampleScenario2.node[124].veinsmobility posx ETV
vector 249 RSUExampleScenario2.node[124].veinsmobility posy ETV
vector 250 RSUExampleScenario2.node[125].veinsmobility posx ETV
vector 251 RSUExampleScenario2.node[125].veinsmobility posy ETV
vector 252 RSUExampleScenario2.node[126].veinsmobility posx ETV
vector 253 RSUExampleScenario2.node[126].veinsmobility posy ETV
vector 254 RSUExampleScenario2.node[127].veinsmobility posx ETV
vector 255 RSUExampleScenario2.node[127].veinsmobility posy ETV
vector 256 RSUExampleScenario2.node[128].veinsmobility posx ETV
vector 257 RSUExampleScenario2.node[128].veinsmobility posy ETV
vector 258 RSUExampleScenario2.node[129].veinsmobility posx ETV
vector 259 RSUExampleScenario2.node[129].veinsmobility posy ETV
vector 260 RSUExampleScenario2.node[130].veinsmobility posx ETV
vector 261 RSUExampleScenario2.node[130].veinsmobility posy ETV
vector 262 RSUExampleScenario2.node[131].veinsmobility posx ETV
vector 263 RSUExampleScenario2.node[131].veinsmobility posy ETV
vector 264 RSUExampleScenario2.node[132].veinsmobility posx ETV
vector 265 RSUExampleScenario2.node[132].veinsmobility posy ETV
vector 266 RSUExampleScenario2.node[133].veinsmobility posx ETV
vector 267 RSUExampleScenario2.node[133].veinsmobility posy ETV
vector 268 RSUExampleScenario2.node[134].veinsmobility posx ETV
vector 269 RSUExampleScenario2.node[134].veinsmobility posy ETV
vector 270 RSUExampleScenario2.node[135].veinsmobility posx ETV
vector 271 RSUExampleScenario2.node[135].veinsmobility posy ETV
vector 272 RSUExampleScenario2.node[136].veinsmobility posx ETV
vector 273 RSUExampleScenario2.node[136].veinsmobility posy ETV
vector 274 RSUExampleScenario2.node[137].veinsmobility posx ETV
vector 275 RSUExampleScenario2.node[137].veinsmobility posy ETV
vector 276 RSUExampleScenario2.node[138].veinsmobility posx ETV
vector 277 RSUExampleScenario2.node[138].veinsmobility posy ETV
vector 278 RSUExampleScenario2.node[139].veinsmobility posx ETV
vector 279 RSUExampleScenario2.node[139].veinsmobility posy ETV
vector 280 RSUExampleScenario2.node[140].veinsmobility posx ETV
vector 281 RSUExampleScenario2.node[140].veinsmobility posy ETV
vector 282 RSUExampleScenario2.node[141].veinsmobility posx ETV
vector 283 RSUExampleScenario2.node[141].veinsmobility posy ETV
vector 284 RSUExampleScenario2.node[142].veinsmobility posx ETV
vector 285 RSUExampleScenario2.node[142].veinsmobility posy ETV
vector 286 RSUExampleScenario2.node[143].veinsmobility posx ETV
vector 287 RSUExampleScenario2.node[143].veinsmobility posy ETV
vector 288 RSUExampleScenario2.node[144].veinsmobility posx ETV
vector 289 RSUExampleScenario2.node[144].veinsmobility posy ETV
vector 290 RSUExampleScenario2.node[145].veinsmobility posx ETV
vector 291 RSUExampleScenario2.node[145].veinsmobility posy ETV
vector 292 RSUExampleScenario2.node[146].veinsmobility posx ETV
vector 293 RSUExampleScenario2.node[146].veinsmobility posy ETV
vector 294 RSUExampleScenario2.node[147].veinsmobility posx ETV
vector 295 RSUExampleScenario2.node[147].veinsmobility posy ETV
vector 296 RSUExampleScenario2.node[148].veinsmobility posx ETV
vector 297 RSUExampleScenario2.node[148].veinsmobility posy ETV
vector 298 RSUExampleScenario2.node[149].veinsmobility posx ETV
vector 299 RSUExampleScenario2.node[149].veinsmobility posy ETV
vector 300 RSUExampleScenario2.node[150].veinsmobility posx ETV
vector 301 RSUExampleScenario2.node[150].veinsmobility posy ETV
vector 302 RSUExampleScenario2.node[151].veinsmobility posx ETV
vector 303 RSUExampleScenario2.node[151].veinsmobility posy ETV
vector 304 RSUExampleScenario2.node[152].veinsmobility posx ETV
vector 305 RSUExampleScenario2.node[152].veinsmobility posy ETV
vector 306 RSUExampleScenario2.node[153].veinsmobility posx ETV
vector 307 RSUExampleScenario2.node[153].veinsmobility posy ETV
vector 308 RSUExampleScenario2.node[154].veinsmobility posx ETV
vector 309 RSUExampleScenario2.node[154].veinsmobility posy ETV
vector 310 RSUExampleScenario2.node[155].veinsmobility posx ETV
vector 311 RSUExampleScenario2.node[155].veinsmobility posy ETV
vector 312 RSUExampleScenario2.node[156].veinsmobility posx ETV
vector 313 RSUExampleScenario2.node[156].veinsmobility posy ETV
vector 314 RSUExampleScenario2.node[157].veinsmobility posx ETV
vector 315 RSUExampleScenario2.node[157].veinsmobility posy ETV
vector 316 RSUExampleScenario2.node[158].veinsmobility posx ETV
vector 317 RSUExampleScenario2.node[158].veinsmobility posy ETV
vector 318 RSUExampleScenario2.node[159].veinsmobility posx ETV
vector 319 RSUExampleScenario2.node[159].veinsmobility posy ETV
vector 320 RSUExampleScenario2.node[160].veinsmobility posx ETV
vector 321 RSUExampleScenario2.node[160].veinsmobility posy ETV
vector 322 RSUExampleScenario2.node[161].veinsmobility posx ETV
vector 323 RSUExampleScenario2.node[161].veinsmobility posy ETV
vector 324 RSUExampleScenario2.node[162].veinsmobility posx ETV
vector 325 RSUExampleScenario2.node[162].veinsmobility posy ETV
vector 326 RSUExampleScenario2.node[163].veinsmobility posx ETV
vector 327 RSUExampleScenario2.node[163].veinsmobility posy ETV
vector 328 RSUExampleScenario2.node[164].veinsmobility posx ETV
vector 329 RSUExampleScenario2.node[164].veinsmobility posy ETV
vector 330 RSUExampleScenario2.node[165].veinsmobility posx ETV
vector 331 RSUExampleScenario2.node[165].veinsmobility posy ETV
vector 332 RSUExampleScenario2.node[166].veinsmobility posx ETV
vector 333 RSUExampleScenario2.node[166].veinsmobility posy ETV
vector 334 RSUExampleScenario2.node[167].veinsmobility posx ETV
vector 335 RSUExampleScenario2.node[167].veinsmobility posy ETV
vector 336 RSUExampleScenario2.node[168].veinsmobility posx ETV
vector 337 RSUExampleScenario2.node[168].veinsmobility posy ETV
vector 338 RSUExampleScenario2.node[169].veinsmobility posx ETV
vector 339 RSUExampleScenario2.node[169].veinsmobility posy ETV
vector 340 RSUExampleScenario2.node[170].veinsmobility posx ETV
vector 341 RSUExampleScenario2.node[170].veinsmobility posy ETV
vector 342 RSUExampleScenario2.node[171].veinsmobility posx ETV
vector 343 RSUExampleScenario2.node[171].veinsmobility posy ETV
vector 344 RSUExampleScenario2.node[172].veinsmobility posx ETV
vector 345 RSUExampleScenario2.node[172].veinsmobility posy ETV
vector 346 RSUExampleScenario2.node[173].veinsmobility posx ETV
vector 347 RSUExampleScenario2.node[173].veinsmobility posy ETV
vector 348 RSUExampleScenario2.node[174].veinsmobility posx ETV
vector 349 RSUExampleScenario2.node[174].veinsmobility posy ETV
vector 350 RSUExampleScenario2.node[175].veinsmobility posx ETV
vector 351 RSUExampleScenario2.node[175].veinsmobility posy ETV
vector 352 RSUExampleScenario2.node[176].veinsmobility posx ETV
vector 353 RSUExampleScenario2.node[176].veinsmobility posy ETV
vector 354 RSUExampleScenario2.node[177].veinsmobility posx ETV
vector 355 RSUExampleScenario2.node[177].veinsmobility posy ETV
vector 356 RSUExampleScenario2.node[178].veinsmobility posx ETV
vector 357 RSUExampleScenario2.node[178].veinsmobility posy ETV
vector 358 RSUExampleScenario2.node[179].veinsmobility posx ETV
vector 359 RSUExampleScenario2.node[179].veinsmobility posy ETV
vector 360 RSUExampleScenario2.node[180].veinsmobility posx ETV
vector 361 RSUExampleScenario2.node[180].veinsmobility posy ETV
vector 362 RSUExampleScenario2.node[181].veinsmobility posx ETV
vector 363 RSUExampleScenario2.node[181].veinsmobility posy ETV
vector 364 RSUExampleScenario2.node[182].veinsmobility posx ETV
vector 365 RSUExampleScenario2.node[182].veinsmobility posy ETV
vector 366 RSUExampleScenario2.node[183].veinsmobility posx ETV
vector 367 RSUExampleScenario2.node[183].veinsmobility posy ETV
vector 368 RSUExampleScenario2.node[184].veinsmobility posx ETV
vector 369 RSUExampleScenario2.node[184].veinsmobility posy ETV
vector 370 RSUExampleScenario2.node[185].veinsmobility posx ETV
vector 371 RSUExampleScenario2.node[185].veinsmobility posy ETV
vector 372 RSUExampleScenario2.node[186].veinsmobility posx ETV
vector 373 RSUExampleScenario2.node[186].veinsmobility posy ETV
vector 374 RSUExampleScenario2.node[187].veinsmobility posx ETV
vector 375 RSUExampleScenario2.node[187].veinsmobility posy ETV
vector 376 RSUExampleScenario2.node[188].veinsmobility posx ETV
vector 377 RSUExampleScenario2.node[188].veinsmobility posy ETV
vector 378 RSUExampleScenario2.node[189].veinsmobility posx ETV
vector 379 RSUExampleScenario2.node[189].veinsmobility posy ETV
vector 380 RSUExampleScenario2.node[190].veinsmobility posx ETV
vector 381 RSUExampleScenario2.node[190].veinsmobility posy ETV
vector 382 RSUExampleScenario2.node[191].veinsmobility posx ETV
vector 383 RSUExampleScenario2.node[191].veinsmobility posy ETV
vector 384 RSUExampleScenario2.node[192].veinsmobility posx ETV
vector 385 RSUExampleScenario2.node[192].veinsmobility posy ETV
vector 386 RSUExampleScenario2.node[193].veinsmobility posx ETV
vector 387 RSUExampleScenario2.node[193].veinsmobility posy ETV
vector 388 RSUExampleScenario2.node[194].veinsmobility posx ETV
vector 389 RSUExampleScenario2.node[194].veinsmobility posy ETV
vector 390 RSUExampleScenario2.node[195].veinsmobility posx ETV
vector 391 RSUExampleScenario2.node[195].veinsmobility posy ETV
vector 392 RSUExampleScenario2.node[196].veinsmobility posx ETV
vector 393 RSUExampleScenario2.node[196].veinsmobility posy ETV
vector 394 RSUExampleScenario2.node[197].veinsmobility posx ETV
vector 395 RSUExampleScenario2.node[197].veinsmobility posy ETV
vector 396 RSUExampleScenario2.node[198].veinsmobility posx ETV
vector 397 RSUExampleScenario2.node[198].veinsmobility posy ETV
vector 398 RSUExampleScenario2.node[199].veinsmobility posx ETV
vector 399 RSUExampleScenario2.node[199].veinsmobility posy ETV
vector 400 RSUExampleScenario2.node[200].veinsmobility posx ETV
vector 401 RSUExampleScenario2.node[200].veinsmobility posy ETV
vector 402 RSUExampleScenario2.node[201].veinsmobility posx ETV
vector 403 RSUExampleScenario2.node[201].veinsmobility posy ETV
vector 404 RSUExampleScenario2.node[202].veinsmobility posx ETV
vector 405 RSUExampleScenario2.node[202].veinsmobility posy ETV
vector 406 RSUExampleScenario2.node[203].veinsmobility posx ETV
vector 407 RSUExampleScenario2.node[203].veinsmobility posy ETV
vector 408 RSUExampleScenario2.node[204].veinsmobility posx ETV
vector 409 RSUExampleScenario2.node[204].veinsmobility posy ETV
vector 410 RSUExampleScenario2.node[205].veinsmobility posx ETV
vector 411 RSUExampleScenario2.node[205].veinsmobility posy ETV
vector 412 RSUExampleScenario2.node[206].veinsmobility posx ETV
vector 413 RSUExampleScenario2.node[206].veinsmobility posy ETV
vector 414 RSUExampleScenario2.node[207].veinsmobility posx ETV
vector 415 RSUExampleScenario2.node[207].veinsmobility posy ETV
vector 416 RSUExampleScenario2.node[208].veinsmobility posx ETV
vector 417 RSUExampleScenario2.node[208].veinsmobility posy ETV
vector 418 RSUExampleScenario2.node[209].veinsmobility posx ETV
vector 419 RSUExampleScenario2.node[209].veinsmobility posy ETV
vector 420 RSUExampleScenario2.node[210].veinsmobility posx ETV
vector 421 RSUExampleScenario2.node[210].veinsmobility posy ETV
vector 422 RSUExampleScenario2.node[211].veinsmobility posx ETV
vector 423 RSUExampleScenario2.node[211].veinsmobility posy ETV
vector 424 RSUExampleScenario2.node[212].veinsmobility posx ETV
vector 425 RSUExampleScenario2.node[212].veinsmobility posy ETV
vector 426 RSUExampleScenario2.node[213].veinsmobility posx ETV
vector 427 RSUExampleScenario2.node[213].veinsmobility posy ETV
vector 428 RSUExampleScenario2.node[214].veinsmobility posx ETV
vector 429 RSUExampleScenario2.node[214].veinsmobility posy ETV
vector 430 RSUExampleScenario2.node[215].veinsmobility posx ETV
vector 431 RSUExampleScenario2.node[215].veinsmobility posy ETV
vector 432 RSUExampleScenario2.node[216].veinsmobility posx ETV
vector 433 RSUExampleScenario2.node[216].veinsmobility posy ETV
vector 434 RSUExampleScenario2.node[217].veinsmobility posx ETV
vector 435 RSUExampleScenario2.node[217].veinsmobility posy ETV
vector 436 RSUExampleScenario2.node[218].veinsmobility posx ETV
vector 437 RSUExampleScenario2.node[218].veinsmobility posy ETV
vector 438 RSUExampleScenario2.node[219].veinsmobility posx ETV
vector 439 RSUExampleScenario2.node[219].veinsmobility posy ETV
vector 440 RSUExampleScenario2.node[220].veinsmobility posx ETV
vector 441 RSUExampleScenario2.node[220].veinsmobility posy ETV
vector 442 RSUExampleScenario2.node[221].veinsmobility posx ETV
vector 443 RSUExampleScenario2.node[221].veinsmobility posy ETV
vector 444 RSUExampleScenario2.node[222].veinsmobility posx ETV
vector 445 RSUExampleScenario2.node[222].veinsmobility posy ETV
vector 446 RSUExampleScenario2.node[223].veinsmobility posx ETV
vector 447 RSUExampleScenario2.node[223].veinsmobility posy ETV
vector 448 RSUExampleScenario2.node[224].veinsmobility posx ETV
vector 449 RSUExampleScenario2.node[224].veinsmobility posy ETV
vector 450 RSUExampleScenario2.node[225].veinsmobility posx ETV
vector 451 RSUExampleScenario2.node[225].veinsmobility posy ETV
vector 452 RSUExampleScenario2.node[226].veinsmobility posx ETV
vector 453 RSUExampleScenario2.node[226].veinsmobility posy ETV
vector 454 RSUExampleScenario2.node[227].veinsmobility posx ETV
vector 455 RSUExampleScenario2.node[227].veinsmobility posy ETV
vector 456 RSUExampleScenario2.node[228].veinsmobility posx ETV
vector 457 RSUExampleScenario2.node[228].veinsmobility posy ETV
vector 458 RSUExampleScenario2.node[229].veinsmobility posx ETV
vector 459 RSUExampleScenario2.node[229].veinsmobility posy ETV
vector 460 RSUExampleScenario2.node[230].veinsmobility posx ETV
vector 461 RSUExampleScenario2.node[230].veinsmobility posy ETV
vector 462 RSUExampleScenario2.node[231].veinsmobility posx ETV
vector 463 RSUExampleScenario2.node[231].veinsmobility posy ETV
vector 464 RSUExampleScenario2.node[232].veinsmobility posx ETV
vector 465 RSUExampleScenario2.node[232].veinsmobility posy ETV
vector 466 RSUExampleScenario2.node[233].veinsmobility posx ETV
vector 467 RSUExampleScenario2.node[233].veinsmobility posy ETV
vector 468 RSUExampleScenario2.node[234].veinsmobility posx ETV
vector 469 RSUExampleScenario2.node[234].veinsmobility posy ETV
vector 470 RSUExampleScenario2.node[235].veinsmobility posx ETV
vector 471 RSUExampleScenario2.node[235].veinsmobility posy ETV
vector 472 RSUExampleScenario2.node[236].veinsmobility posx ETV
vector 473 RSUExampleScenario2.node[236].veinsmobility posy ETV
vector 474 RSUExampleScenario2.node[237].veinsmobility posx ETV
vector 475 RSUExampleScenario2.node[237].veinsmobility posy ETV
vector 476 RSUExampleScenario2.node[238].veinsmobility posx ETV
vector 477 RSUExampleScenario2.node[238].veinsmobility posy ETV
vector 478 RSUExampleScenario2.node[239].veinsmobility posx ETV
vector 479 RSUExampleScenario2.node[239].veinsmobility posy ETV
vector 480 RSUExampleScenario2.node[240].veinsmobility posx ETV
vector 481 RSUExampleScenario2.node[240].veinsmobility posy ETV
vector 482 RSUExampleScenario2.node[241].veinsmobility posx ETV
vector 483 RSUExampleScenario2.node[241].veinsmobility posy ETV
vector 484 RSUExampleScenario2.node[242].veinsmobility posx ETV
vector 485 RSUExampleScenario2.node[242].veinsmobility posy ETV
vector 486 RSUExampleScenario2.node[243].veinsmobility posx ETV
vector 487 RSUExampleScenario2.node[243].veinsmobility posy ETV
vector 488 RSUExampleScenario2.node[244].veinsmobility posx ETV
vector 489 RSUExampleScenario2.node[244].veinsmobility posy ETV
vector 490 RSUExampleScenario2.node[245].veinsmobility posx ETV
vector 491 RSUExampleScenario2.node[245].veinsmobility posy ETV
vector 492 RSUExampleScenario2.node[246].veinsmobility posx ETV
vector 493 RSUExampleScenario2.node[246].veinsmobility posy ETV
vector 494 RSUExampleScenario2.node[247].veinsmobility posx ETV
vector 495 RSUExampleScenario2.node[247].veinsmobility posy ETV
vector 496 RSUExampleScenario2.node[248].veinsmobility posx ETV
vector 497 RSUExampleScenario2.node[248].veinsmobility posy ETV
vector 498 RSUExampleScenario2.node[249].veinsmobility posx ETV
vector 499 RSUExampleScenario2.node[249].veinsmobility posy ETV
vector 500 RSUExampleScenario2.node[250].veinsmobility posx ETV
vector 501 RSUExampleScenario2.node[250].veinsmobility posy ETV
vector 502 RSUExampleScenario2.node[251].veinsmobility posx ETV
vector 503 RSUExampleScenario2.node[251].veinsmobility posy ETV
0	34387 25 30 30 301 301 1 5902.0289666757 5902.0289666757 5902.0289666757 34833945.923479
1	34412 14 30 30 301 301 1 29.8 29.8 29.8 888.04
2	34426 25 30 30 301 301 1 5853.5031319955 5853.5031319955 5853.5031319955 34263498.916281
3	34451 14 30 30 301 301 1 29.8 29.8 29.8 888.04
4	34465 25 30 30 301 301 1 5417.0681354238 5417.0681354238 5417.0681354238 29344627.183824
5	34490 14 30 30 301 301 1 29.8 29.8 29.8 888.04
6	34504 25 30 30 301 301 1 1103.7065448815 1103.7065448815 1103.7065448815 1218168.1372143
7	34529 14 30 30 301 301 1 26.6 26.6 26.6 707.56
8	34543 25 30 30 301 301 1 1065.0647109332 1065.0647109332 1065.0647109332 1134362.8384752
9	34568 14 30 30 301 301 1 29.8 29.8 29.8 888.04
10	34582 26 30 30 301 301 1 1013.1003291062 1013.1003291062 1013.1003291062 1026372.2768352
11	34608 15 30 30 301 301 1 29.8 29.8 29.8 888.04
12	34623 26 30 30 301 301 1 968.28916251263 968.28916251263 968.28916251263 937583.90223942
13	34649 15 30 30 301 301 1 26.6 26.6 26.6 707.56
14	34664 26 30 30 301 301 1 846.25185119831 846.25185119831 846.25185119831 716142.19565657
15	34690 15 30 30 301 301 1 29.8 29.8 29.8 888.04
16	34705 26 30 30 301 301 1 843.55967378836 843.55967378836 843.55967378836 711592.92324192
17	34731 15 30 30 301 301 1 26.6 26.6 26.6 707.56
18	34746 26 30 30 301 301 1 754.46269192187 754.46269192187 754.46269192187 569213.953502
19	34772 15 30 30 301 301 1 29.8 29.8 29.8 888.04
20	34787 26 30 30 301 301 1 730.76035272007 730.76035272007 730.76035272007 534010.69310757
21	34813 15 30 30 301 301 1 26.6 26.6 26.6 707.56
22	34828 26 30 30 301 301 1 707.06440937071 707.06440937071 707.06440937071 499940.07899875
23	34854 15 30 30 301 301 1 26.6 26.6 26.6 707.56
24	34869 26 30 30 301 301 1 681.71040843468 681.71040843468 681.71040843468 464729.08096818
25	34895 15 30 30 301 301 1 26.6 26.6 26.6 707.56
26	34910 26 30 30 301 301 1 5365.5557298972 5365.5557298972 5365.5557298972 28789188.290633
27	34936 15 30 30 301 301 1 29.8 29.8 29.8 888.04
28	34951 26 30 30 301 301 1 633.75413768447 633.75413768447 633.75413768447 401644.30703218
29	34977 15 30 30 301 301 1 29.8 29.8 29.8 888.04
30	34992 25 30 30 301 301 1 581.5210239247 581.5210239247 581.5210239247 338166.70126643
31	35017 15 30 30 301 301 1 29.8 29.8 29.8 888.04
32	35032 26 30 30 301 301 1 541.06851237544 541.06851237544 541.06851237544 292755.13508417
33	35058 15 30 30 301 301 1 29.8 29.8 29.8 888.04
34	35073 25 30 30 301 301 1 489.8216069183 489.8216069183 489.8216069183 239925.20660403
35	35098 15 30 30 301 301 1 29.8 29.8 29.8 888.04
36	35113 26 30 30 301 301 1 432.01249821537 432.01249821537 432.01249821537 186634.79861428
37	35139 15 30 30 301 301 1 29.8 29.8 29.8 888.04
38	35154 26 30 30 301 301 1 397.02227714323 397.02227714323 397.02227714323 157626.688548
39	35180 15 30 30 301 301 1 29.8 29.8 29.8 888.04
40	35195 26 30 30 301 301 1 344.81341060992 344.81341060992 344.81341060992 118896.28813644
41	35221 15 30 30 301 301 1 29.8 29.8 29.8 888.04
42	35236 26 30 30 301 301 1 283.07474795298 283.07474795298 283.07474795298 80131.312928641
43	35262 15 30 30 301 301 1 29.8 29.8 29.8 888.04
44	35277 26 30 30 301 301 1 237.65838775059 237.65838775059 237.65838775059 56481.509268211
45	35303 15 30 30 301 301 1 29.8 29.8 29.8 888.04
46	35318 26 30 30 301 301 1 198.22124725173 198.22124725173 198.22124725173 39291.662862031
47	35344 15 30 30 301 301 1 29.8 29.8 29.8 888.04
48	35359 26 30 30 301 301 1 5018.0595084681 5018.0595084681 5018.0595084681 25180921.230527
49	35385 15 30 30 301 301 1 29.8 29.8 29.8 888.04
50	35400 26 30 30 301 301 1 156.20578683136 156.20578683136 156.20578683136 24400.247839605
51	35426 15 30 30 301 301 1 26.6 26.6 26.6 707.56
52	35441 26 30 30 301 301 1 108.29131697985 108.29131697985 108.29131697985 11727.00933323
53	35467 15 30 30 301 301 1 26.6 26.6 26.6 707.56
54	35482 26 30 30 301 301 1 77.402837080489 77.402837080489 77.402837080489 5991.1991881088
55	35508 15 30 30 301 301 1 29.8 29.8 29.8 888.04
56	35523 26 30 30 301 301 1 52.883137282668 52.883137282668 52.883137282668 2796.6262088575
57	35549 15 30 30 301 301 1 26.6 26.6 26.6 707.56
58	35564 26 30 30 301 301 1 35.705052313282 35.705052313282 35.705052313282 1274.8507606942
59	35590 15 30 30 301 301 1 26.6 26.6 26.6 707.56
60	35605 26 30 30 301 301 1 28.130648304271 28.130648304271 28.130648304271 791.33337401858
61	35631 15 30 30 301 301 1 29.8 29.8 29.8 888.04
62	35646 26 30 30 301 301 1 5144.0108990982 5144.0108990982 5144.0108990982 26460848.130041
63	35672 15 30 30 301 301 1 26.6 26.6 26.6 707.56
64	35687 26 30 30 301 301 1 5215.6971784928 5215.6971784928 5215.6971784928 27203497.057737
65	35713 15 30 30 301 301 1 26.6 26.6 26.6 707.56
66	35728 26 30 30 301 301 1 5175.1766436365 5175.1766436365 5175.1766436365 26782453.292841
67	35754 15 30 30 301 301 1 26.6 26.6 26.6 707.56
68	35769 26 30 30 301 301 1 4348.1697165541 4348.1697165541 4348.1697165541 18906579.883958
69	35795 15 30 30 301 301 1 29.8 29.8 29.8 888.04
70	35810 26 30 30 301 301 1 5086.2679551211 5086.2679551211 5086.2679551211 25870121.711291
71	35836 15 30 30 301 301 1 29.8 29.8 29.8 888.04
72	35851 24 30 30 301 301 1 5037.73418762 5037.73418762 5037.73418762 25378765.745115
73	35875 15 30 30 301 301 1 26.6 26.6 26.6 707.56
74	35890 26 30 30 301 301 1 4719.9889903412 4719.9889903412 4719.9889903412 22278296.068942
75	35916 15 30 30 301 301 1 29.8 29.8 29.8 888.04
76	35931 26 30 30 301 301 1 5144.2668217616 5144.2668217616 5144.2668217616 26463481.133477
77	35957 15 30 30 301 301 1 29.8 29.8 29.8 888.04
78	35972 26 30 30 301 301 1 4400.4953458566 4400.4953458566 4400.4953458566 19364359.288906
79	35998 15 30 30 301 301 1 29.8 29.8 29.8 888.04
80	36013 26 30 30 301 301 1 4456.5403101579 4456.5403101579 4456.5403101579 19860751.536062
81	36039 15 30 30 301 301 1 29.8 29.8 29.8 888.04
82	36054 26 30 30 301 301 1 4278.8291702591 4278.8291702591 4278.8291702591 18308379.06826
83	36080 15 30 30 301 301 1 29.8 29.8 29.8 888.04
84	36095 26 30 30 301 301 1 4090.8428255832 4090.8428255832 4090.8428255832 16734995.023625
85	36121 15 30 30 301 301 1 29.8 29.8 29.8 888.04
86	36136 26 30 30 301 301 1 4119.6542376602 4119.6542376602 4119.6542376602 16971551.037871
87	36162 15 30 30 301 301 1 29.8 29.8 29.8 888.04
88	36177 25 30 30 301 301 1 4345.029152656 4345.029152656 4345.029152656 18879278.337431
89	36202 15 30 30 301 301 1 26.6 26.6 26.6 707.56
90	36217 26 30 30 301 301 1 4419.4697332327 4419.4697332327 4419.4697332327 19531712.72296
91	36243 15 30 30 301 301 1 26.6 26.6 26.6 707.56
92	36258 26 30 30 301 301 1 4123.0314076959 4123.0314076959 4123.0314076959 16999387.988847
93	36284 15 30 30 301 301 1 26.6 26.6 26.6 707.56
94	36299 26 30 30 301 301 1 3153.8523103095 3153.8523103095 3153.8523103095 9946784.3952444
95	36325 15 30 30 301 301 1 29.8 29.8 29.8 888.04
96	36340 26 30 30 301 301 1 4068.7749860703 4068.7749860703 4068.7749860703 16554929.887272
97	36366 15 30 30 301 301 1 29.8 29.8 29.8 888.04
98	36381 26 30 30 301 301 1 5447.6158032098 5447.6158032098 5447.6158032098 29676517.939381
99	36407 15 30 30 301 301 1 29.8 29.8 29.8 888.04
100	36422 27 30 30 301 301 1 3630.9683989362 3630.9683989362 3630.9683989362 13183931.514074
101	36449 16 30 30 301 301 1 29.8 29.8 29.8 888.04
102	36465 26 30 30 301 301 1 4046.672289436 4046.672289436 4046.672289436 16375556.618089
103	36491 16 30 30 301 301 1 29.8 29.8 29.8 888.04
104	36507 27 30 30 301 301 1 4099.4898410113 4099.4898410113 4099.4898410113 16805816.956555
105	36534 16 30 30 301 301 1 26.6 26.6 26.6 707.56
106	36550 27 30 30 301 301 1 3585.7286500151 3585.7286500151 3585.7286500151 12857449.951539
107	36577 16 30 30 301 301 1 29.8 29.8 29.8 888.04
108	36593 27 30 30 301 301 1 4075.9353370894 4075.9353370894 4075.9353370894 16613248.872134
109	36620 16 30 30 301 301 1 26.6 26.6 26.6 707.56
110	36636 27 30 30 301 301 1 4052.3881411745 4052.3881411745 4052.3881411745 16421849.646732
111	36663 16 30 30 301 301 1 26.6 26.6 26.6 707.56
112	36679 27 30 30 301 301 1 4024.0598743864 4024.0598743864 4024.0598743864 16193057.872647
113	36706 16 30 30 301 301 1 29.8 29.8 29.8 888.04
114	36722 27 30 30 301 301 1 3598.0005131991 3598.0005131991 3598.0005131991 12945607.692981
115	36749 16 30 30 301 301 1 26.6 26.6 26.6 707.56
116	36765 27 30 30 301 301 1 4028.8496373384 4028.8496373384 4028.8496373384 16231629.400282
117	36792 16 30 30 301 301 1 26.6 26.6 26.6 707.56
118	36808 27 30 30 301 301 1 3558.9120200717 3558.9120200717 3558.9120200717 12665854.766611
119	36835 16 30 30 301 301 1 29.8 29.8 29.8 888.04
120	36851 27 30 30 301 301 1 5671.9969258659 5671.9969258659 5671.9969258659 32171549.127032
121	36878 16 30 30 301 301 1 29.8 29.8 29.8 888.04
122	36894 27 30 30 301 301 1 3982.8055427168 3982.8055427168 3982.8055427168 15862739.991096
123	36921 16 30 30 301 301 1 29.8 29.8 29.8 888.04
124	36937 27 30 30 301 301 1 3925.1396572812 3925.1396572812 3925.1396572812 15406721.329162
125	36964 16 30 30 301 301 1 29.8 29.8 29.8 888.04
126	36980 27 30 30 301 301 1 3853.8574547818 3853.8574547818 3853.8574547818 14852217.281777
127	37007 16 30 30 301 301 1 29.8 29.8 29.8 888.04
128	37023 27 30 30 301 301 1 3828.3716785125 3828.3716785125 3828.3716785125 14656429.708836
129	37050 16 30 30 301 301 1 29.8 29.8 29.8 888.04
130	37066 27 30 30 301 301 1 3791.7419212767 3791.7419212767 3791.7419212767 14377306.797567
131	37093 16 30 30 301 301 1 29.8 29.8 29.8 888.04
132	37109 27 30 30 301 301 1 3732.9664574107 3732.9664574107 3732.9664574107 13935038.572153
133	37136 16 30 30 301 301 1 29.8 29.8 29.8 888.04
134	37152 26 30 30 301 301 1 3702.121898522 3702.121898522 3702.121898522 13705706.551516
135	37178 16 30 30 301 301 1 29.8 29.8 29.8 888.04
136	37194 27 30 30 301 301 1 3575.2777031065 3575.2777031065 3575.2777031065 12782610.65433
137	37221 16 30 30 301 301 1 26.6 26.6 26.6 707.56
138	37237 26 30 30 301 301 1 3552.496890052 3552.496890052 3552.496890052 12620234.153829
139	37263 16 30 30 301 301 1 26.6 26.6 26.6 707.56
140	37279 27 30 30 301 301 1 3132.6391678228 3132.6391678228 3132.6391678228 9813428.1557776
141	37306 16 30 30 301 301 1 29.8 29.8 29.8 888.04
142	37322 27 30 30 301 301 1 5646.7042578494 5646.7042578494 5646.7042578494 31885268.975615
143	37349 16 30 30 301 301 1 29.8 29.8 29.8 888.04
144	37365 27 30 30 301 301 1 3352.5836545347 3352.5836545347 3352.5836545347 11239817.160653
145	37392 16 30 30 301 301 1 29.8 29.8 29.8 888.04
146	37408 27 30 30 301 301 1 3445.0138916744 3445.0138916744 3445.0138916744 11868120.713829
147	37435 16 30 30 301 301 1 29.8 29.8 29.8 888.04
148	37451 27 30 30 301 301 1 3406.5250097956 3406.5250097956 3406.5250097956 11604412.642363
149	37478 16 30 30 301 301 1 29.8 29.8 29.8 888.04
150	37494 26 30 30 301 301 1 3224.339270194 3224.339270194 3224.339270194 10396363.729315
151	37520 16 30 30 301 301 1 29.8 29.8 29.8 888.04
152	37536 27 30 30 301 301 1 3310.9786860844 3310.9786860844 3310.9786860844 10962579.859705
153	37563 16 30 30 301 301 1 29.8 29.8 29.8 888.04
154	37579 27 30 30 301 301 1 3254.3563037954 3254.3563037954 3254.3563037954 10590834.952053
155	37606 16 30 30 301 301 1 29.8 29.8 29.8 888.04
156	37622 27 30 30 301 301 1 3107.2094384741 3107.2094384741 3107.2094384741 9654750.4945426
157	37649 16 30 30 301 301 1 29.8 29.8 29.8 888.04
158	37665 27 30 30 301 301 1 3156.2118651697 3156.2118651697 3156.2118651697 9961673.3378378
159	37692 16 30 30 301 301 1 26.6 26.6 26.6 707.56
160	37708 27 30 30 301 301 1 3123.7920741559 3123.7920741559 3123.7920741559 9758076.9225592
161	37735 16 30 30 301 301 1 26.6 26.6 26.6 707.56
162	37751 27 30 30 301 301 1 3077.3568581226 3077.3568581226 3077.3568581226 9470125.2322339
163	37778 16 30 30 301 301 1 29.8 29.8 29.8 888.04
164	37794 26 30 30 301 301 1 5212.139238525 5212.139238525 5212.139238525 27166395.441772
165	37820 16 30 30 301 301 1 29.8 29.8 29.8 888.04
166	37836 27 30 30 301 301 1 2665.4496823846 2665.4496823846 2665.4496823846 7104622.0093239
167	37863 16 30 30 301 301 1 29.8 29.8 29.8 888.04
168	37879 27 30 30 301 301 1 2861.3642020351 2861.3642020351 2861.3642020351 8187405.0966877
169	37906 16 30 30 301 301 1 29.8 29.8 29.8 888.04
170	37922 27 30 30 301 301 1 2923.5746925255 2923.5746925255 2923.5746925255 8547288.9827756
171	37949 16 30 30 301 301 1 29.8 29.8 29.8 888.04
172	37965 27 30 30 301 301 1 2879.9904941087 2879.9904941087 2879.9904941087 8294345.2461565
173	37992 16 30 30 301 301 1 26.6 26.6 26.6 707.56
174	38008 27 30 30 301 301 1 2831.0310197936 2831.0310197936 2831.0310197936 8014736.6350337
175	38035 16 30 30 301 301 1 29.8 29.8 29.8 888.04
176	38051 27 30 30 301 301 1 2742.3956393038 2742.3956393038 2742.3956393038 7520733.8424723
177	38078 16 30 30 301 301 1 29.8 29.8 29.8 888.04
178	38094 27 30 30 301 301 1 2477.2866461637 2477.2866461637 2477.2866461637 6136949.1272611
179	38121 16 30 30 301 301 1 29.8 29.8 29.8 888.04
180	38137 27 30 30 301 301 1 2579.8395439035 2579.8395439035 2579.8395439035 6655572.0722884
181	38164 16 30 30 301 301 1 29.8 29.8 29.8 888.04
182	38180 27 30 30 301 301 1 2618.6833199673 2618.6833199673 2618.6833199673 6857502.3302747
183	38207 16 30 30 301 301 1 29.8 29.8 29.8 888.04
184	38223 27 30 30 301 301 1 2454.1493604886 2454.1493604886 2454.1493604886 6022849.0835864
185	38250 16 30 30 301 301 1 29.8 29.8 29.8 888.04
186	38266 27 30 30 301 301 1 5553.0704178686 5553.0704178686 5553.0704178686 30836591.065808
187	38293 16 30 30 301 301 1 29.8 29.8 29.8 888.04
188	38309 27 30 30 301 301 1 2549.2199495518 2549.2199495518 2549.2199495518 6498522.3511927
189	38336 16 30 30 301 301 1 29.8 29.8 29.8 888.04
190	38352 27 30 30 301 301 1 2499.6094128922 2499.6094128922 2499.6094128922 6248047.2170192
191	38379 16 30 30 301 301 1 29.8 29.8 29.8 888.04
192	38395 27 30 30 301 301 1 2454.7446641492 2454.7446641492 2454.7446641492 6025771.366169
193	38422 16 30 30 301 301 1 26.6 26.6 26.6 707.56
194	38438 27 30 30 301 301 1 2405.7673916702 2405.7673916702 2405.7673916702 5787716.7428236
195	38465 16 30 30 301 301 1 29.8 29.8 29.8 888.04
196	38481 27 30 30 301 301 1 1942.9110576857 1942.9110576857 1942.9110576857 3774903.3780774
197	38508 16 30 30 301 301 1 29.8 29.8 29.8 888.04
198	38524 27 30 30 301 301 1 2166.3801417933 2166.3801417933 2166.3801417933 4693202.9187563
199	38551 16 30 30 301 301 1 29.8 29.8 29.8 888.04
200	38567 27 30 30 301 301 1 2259.8984052593 2259.8984052593 2259.8984052593 5107140.8020933
201	38594 16 30 30 301 301 1 29.8 29.8 29.8 888.04
202	38610 27 30 30 301 301 1 2210.0864121596 2210.0864121596 2210.0864121596 4884481.9492124
203	38637 16 30 30 301 301 1 29.8 29.8 29.8 888.04
204	38653 27 30 30 301 301 1 2122.4249165422 2122.4249165422 2122.4249165422 4504687.5263591
205	38680 16 30 30 301 301 1 29.8 29.8 29.8 888.04
206	38696 27 30 30 301 301 1 2045.2033578674 2045.2033578674 2045.2033578674 4182856.7750322
207	38723 16 30 30 301 301 1 29.8 29.8 29.8 888.04
208	38739 27 30 30 301 301 1 5509.8711319291 5509.8711319291 5509.8711319291 30358679.890465
209	38766 16 30 30 301 301 1 29.8 29.8 29.8 888.04
210	38782 27 30 30 301 301 1 1817.2893072648 1817.2893072648 1817.2893072648 3302540.4262989
211	38809 16 30 30 301 301 1 29.8 29.8 29.8 888.04
212	38825 26 30 30 301 301 1 2011.322958129 2011.322958129 2011.322958129 4045420.0418969
213	38851 16 30 30 301 301 1 26.6 26.6 26.6 707.56
214	38867 27 30 30 301 301 1 1965.2758911327 1965.2758911327 1965.2758911327 3862309.3282675
215	38894 16 30 30 301 301 1 26.6 26.6 26.6 707.56
216	38910 27 30 30 301 301 1 1919.1727400922 1919.1727400922 1919.1727400922 3683224.0063129
217	38937 16 30 30 301 301 1 26.6 26.6 26.6 707.56
218	38953 27 30 30 301 301 1 1877.1606674786 1877.1606674786 1877.1606674786 3523732.1715288
219	38980 16 30 30 301 301 1 29.8 29.8 29.8 888.04
220	38996 25 30 30 301 301 1 1824.52347201 1824.52347201 1824.52347201 3328885.8999153
221	39021 16 30 30 301 301 1 26.6 26.6 26.6 707.56
222	39037 27 30 30 301 301 1 1579.6947814054 1579.6947814054 1579.6947814054 2495435.6023996
223	39064 16 30 30 301 301 1 29.8 29.8 29.8 888.04
224	39080 27 30 30 301 301 1 1729.4917800789 1729.4917800789 1729.4917800789 2991141.8173606
225	39107 16 30 30 301 301 1 29.8 29.8 29.8 888.04
226	39123 27 30 30 301 301 1 1434.1173235666 1434.1173235666 1434.1173235666 2056692.4977538
227	39150 16 30 30 301 301 1 29.8 29.8 29.8 888.04
228	39166 27 30 30 301 301 1 1473.0447220904 1473.0447220904 1473.0447220904 2169860.7532783
229	39193 16 30 30 301 301 1 29.8 29.8 29.8 888.04
230	39209 27 30 30 301 301 1 5459.2986862641 5459.2986862641 5459.2986862641 29803942.145845
231	39236 16 30 30 301 301 1 26.6 26.6 26.6 707.56
232	39252 27 30 30 301 301 1 1589.1367512902 1589.1367512902 1589.1367512902 2525355.6143012
233	39279 16 30 30 301 301 1 26.6 26.6 26.6 707.56
234	39295 27 30 30 301 301 1 1479.8289209751 1479.8289209751 1479.8289209751 2189893.6353545
235	39322 16 30 30 301 301 1 26.6 26.6 26.6 707.56
236	39338 27 30 30 301 301 1 1454.6853396325 1454.6853396325 1454.6853396325 2116109.4373416
237	39365 16 30 30 301 301 1 26.6 26.6 26.6 707.56
238	39381 27 30 30 301 301 1 1377.5452861742 1377.5452861742 1377.5452861742 1897631.0154607
239	39408 16 30 30 301 301 1 29.8 29.8 29.8 888.04
240	39424 27 30 30 301 301 1 1378.0056307632 1378.0056307632 1378.0056307632 1898899.518415
241	39451 16 30 30 301 301 1 26.6 26.6 26.6 707.56
242	39467 27 30 30 301 301 1 1349.0151927632 1349.0151927632 1349.0151927632 1819841.990306
243	39494 16 30 30 301 301 1 29.8 29.8 29.8 888.04
244	39510 27 30 30 301 301 1 1213.8235409473 1213.8235409473 1213.8235409473 1473367.5885579
245	39537 16 30 30 301 301 1 29.8 29.8 29.8 888.04
246	39553 26 30 30 301 301 1 1236.576788976 1236.576788976 1236.576788976 1529122.1550342
247	39579 16 30 30 301 301 1 29.8 29.8 29.8 888.04
248	39595 27 30 30 301 301 1 956.58159777574 956.58159777574 956.58159777574 915048.35320319
249	39622 16 30 30 301 301 1 29.8 29.8 29.8 888.04
250	39638 27 30 30 301 301 1 1106.2981853906 1106.2981853906 1106.2981853906 1223895.6749984
251	39665 16 30 30 301 301 1 29.8 29.8 29.8 888.04
252	39681 27 30 30 301 301 1 4145.7830136601 4145.7830136601 4145.7830136601 17187516.796353
253	39708 16 30 30 301 301 1 20.2 20.2 20.2 408.04
254	39724 27 30 30 301 301 1 4193.7745549416 4193.7745549416 4193.7745549416 17587745.017675
255	39751 16 30 30 301 301 1 20.2 20.2 20.2 408.04
256	39767 27 30 30 301 301 1 5258.7660031036 5258.7660031036 5258.7660031036 27654619.875398
257	39794 16 30 30 301 301 1 20.2 20.2 20.2 408.04
258	39810 27 30 30 301 301 1 9019.4760352401 9019.4760352401 9019.4760352401 81350947.95027
259	39837 16 30 30 301 301 1 20.2 20.2 20.2 408.04
260	39853 27 30 30 301 301 1 8986.5398024901 8986.5398024901 8986.5398024901 80757897.621739
261	39880 16 30 30 301 301 1 20.2 20.2 20.2 408.04
262	39896 27 30 30 301 301 1 9061.8247994852 9061.8247994852 9061.8247994852 82116668.696564
263	39923 16 30 30 301 301 1 20.2 20.2 20.2 408.04
264	39939 27 30 30 301 301 1 9077.7206079246 9077.7206079246 9077.7206079246 82405011.435539
265	39966 16 30 30 301 301 1 23.4 23.4 23.4 547.56
266	39982 27 30 30 301 301 1 9215.3656610019 9215.3656610019 9215.3656610019 84922964.265973
267	40009 16 30 30 301 301 1 20.2 20.2 20.2 408.04
268	40025 27 30 30 301 301 1 9173.0017831506 9173.0017831506 9173.0017831506 84143961.713684
269	40052 16 30 30 301 301 1 20.2 20.2 20.2 408.04
270	40068 27 30 30 301 301 1 9221.3957171492 9221.3957171492 9221.3957171492 85034138.972258
271	40095 16 30 30 301 301 1 23.4 23.4 23.4 547.56
272	40111 27 30 30 301 301 1 9302.4169405469 9302.4169405469 9302.4169405469 86534960.935773
273	40138 16 30 30 301 301 1 20.2 20.2 20.2 408.04
274	40154 27 30 30 301 301 1 9353.1526758261 9353.1526758261 9353.1526758261 87481464.977312
275	40181 16 30 30 301 301 1 20.2 20.2 20.2 408.04
276	40197 27 30 30 301 301 1 9384.7893450322 9384.7893450322 9384.7893450322 88074271.05063
277	40224 16 30 30 301 301 1 20.2 20.2 20.2 408.04
278	40240 27 30 30 301 301 1 6022.0754761888 6022.0754761888 6022.0754761888 36265393.040915
279	40267 16 30 30 301 301 1 23.4 23.4 23.4 547.56
280	40283 27 30 30 301 301 1 9417.0947499678 9417.0947499678 9417.0947499678 88681673.52987
281	40310 16 30 30 301 301 1 20.2 20.2 20.2 408.04
282	40326 27 30 30 301 301 1 9459.9828773737 9459.9828773737 9459.9828773737 89491276.040203
283	40353 16 30 30 301 301 1 20.2 20.2 20.2 408.04
284	40369 27 30 30 301 301 1 9530.5981763816 9530.5981763816 9530.5981763816 90832301.599649
285	40396 16 30 30 301 301 1 20.2 20.2 20.2 408.04
286	40412 27 30 30 301 301 1 9556.9510660209 9556.9510660209 9556.9510660209 91335313.678318
287	40439 16 30 30 301 301 1 23.4 23.4 23.4 547.56
288	40455 27 30 30 301 301 1 9619.6811321479 9619.6811321479 9619.6811321479 92538265.084202
289	40482 16 30 30 301 301 1 20.2 20.2 20.2 408.04
290	40498 27 30 30 301 301 1 9655.1882927439 9655.1882927439 9655.1882927439 93222660.968338
291	40525 16 30 30 301 301 1 20.2 20.2 20.2 408.04
292	40541 27 30 30 301 301 1 9740.0531589765 9740.0531589765 9740.0531589765 94868635.539688
293	40568 16 30 30 301 301 1 20.2 20.2 20.2 408.04
294	40584 27 30 30 301 301 1 9752.1836283494 9752.1836283494 9752.1836283494 95105085.521046
295	40611 16 30 30 301 301 1 23.4 23.4 23.4 547.56
296	40627 27 30 30 301 301 1 9796.2297685518 9796.2297685518 9796.2297685518 95966117.678261
297	40654 16 30 30 301 301 1 20.2 20.2 20.2 408.04
298	40670 27 30 30 301 301 1 9843.3109380586 9843.3109380586 9843.3109380586 96890770.223305
299	40697 16 30 30 301 301 1 20.2 20.2 20.2 408.04
300	40713 27 30 30 301 301 1 4733.5482697973 4733.5482697973 4733.5482697973 22406479.222501
301	40740 16 30 30 301 301 1 20.2 20.2 20.2 408.04
302	40756 27 30 30 301 301 1 9894.7902566129 9894.7902566129 9894.7902566129 97906874.222362
303	40783 16 30 30 301 301 1 23.4 23.4 23.4 547.56
304	40799 27 30 30 301 301 1 9937.0096425042 9937.0096425042 9937.0096425042 98744160.63522
305	40826 16 30 30 301 301 1 20.2 20.2 20.2 408.04
306	40842 27 30 30 301 301 1 9970.2000869066 9970.2000869066 9970.2000869066 99404889.772952
307	40869 16 30 30 301 301 1 20.2 20.2 20.2 408.04
308	40885 27 30 30 301 301 1 9996.6523983615 9996.6523983615 9996.6523983615 99933059.173666
309	40912 16 30 30 301 301 1 23.4 23.4 23.4 547.56
310	40928 27 30 30 301 301 1 10013.852890214 10013.852890214 10013.852890214 100277249.70685
311	40955 16 30 30 301 301 1 23.4 23.4 23.4 547.56
312	40971 27 30 30 301 301 1 10021.883324628 10021.883324628 10021.883324628 100438145.37245
313	40998 16 30 30 301 301 1 20.2 20.2 20.2 408.04
314	41014 27 30 30 301 301 1 4784.9116322539 4784.9116322539 4784.9116322539 22895379.328478
315	41041 16 30 30 301 301 1 20.2 20.2 20.2 408.04
316	41057 27 30 30 301 301 1 4828.0489757076 4828.0489757076 4828.0489757076 23310056.911832
317	41084 16 30 30 301 301 1 20.2 20.2 20.2 408.04
318	41100 27 30 30 301 301 1 4879.6487211958 4879.6487211958 4879.6487211958 23810971.642268
319	41127 16 30 30 301 301 1 20.2 20.2 20.2 408.04
320	41143 27 30 30 301 301 1 5029.2339837709 5029.2339837709 5029.2339837709 25293194.463516
321	41170 16 30 30 301 301 1 20.2 20.2 20.2 408.04
322	41186 27 30 30 301 301 1 4968.5124984072 4968.5124984072 4968.5124984072 24686116.446828
323	41213 16 30 30 301 301 1 20.2 20.2 20.2 408.04
324	41229 27 30 30 301 301 1 5620.5352870611 5620.5352870611 5620.5352870611 31590416.913099
325	41256 16 30 30 301 301 1 23.4 23.4 23.4 547.56
326	41272 27 30 30 301 301 1 5869.1741993306 5869.1741993306 5869.1741993306 34447205.782088
327	41299 16 30 30 301 301 1 20.2 20.2 20.2 408.04
328	41315 27 30 30 301 301 1 4248.0139087854 4248.0139087854 4248.0139087854 18045622.169234
329	41342 16 30 30 301 301 1 20.2 20.2 20.2 408.04
330	41358 27 30 30 301 301 1 5111.6378627273 5111.6378627273 5111.6378627273 26128841.639667
331	41385 16 30 30 301 301 1 20.2 20.2 20.2 408.04
332	41401 26 30 30 301 301 1 5587.743674832 5587.743674832 5587.743674832 31222879.375625
333	41427 16 30 30 301 301 1 20.2 20.2 20.2 408.04
334	41443 27 30 30 301 301 1 5222.4229339509 5222.4229339509 5222.4229339509 27273701.301057
335	41470 16 30 30 301 301 1 20.2 20.2 20.2 408.04
336	41486 27 30 30 301 301 1 6426.2823976258 6426.2823976258 6426.2823976258 41297105.454035
337	41513 16 30 30 301 301 1 20.2 20.2 20.2 408.04
338	41529 27 30 30 301 301 1 5744.3939239776 5744.3939239776 5744.3939239776 32998061.55383
339	41556 16 30 30 301 301 1 20.2 20.2 20.2 408.04
340	41572 27 30 30 301 301 1 5363.0849292317 5363.0849292317 5363.0849292317 28762679.958152
341	41599 16 30 30 301 301 1 20.2 20.2 20.2 408.04
342	41615 27 30 30 301 301 1 6044.0097673511 6044.0097673511 6044.0097673511 36530054.067835
343	41642 16 30 30 301 301 1 20.2 20.2 20.2 408.04
344	41658 27 30 30 301 301 1 5454.5437787311 5454.5437787311 5454.5437787311 29752047.834094
345	41685 16 30 30 301 301 1 20.2 20.2 20.2 408.04
346	41701 27 30 30 301 301 1 5489.9729166939 5489.9729166939 5489.9729166939 30139802.626032
347	41728 16 30 30 301 301 1 20.2 20.2 20.2 408.04
348	41744 27 30 30 301 301 1 6064.6613363776 6064.6613363776 6064.6613363776 36780117.124954
349	41771 16 30 30 301 301 1 20.2 20.2 20.2 408.04
350	41787 27 30 30 301 301 1 5623.1102605037 5623.1102605037 5623.1102605037 31619369.001782
351	41814 16 30 30 301 301 1 20.2 20.2 20.2 408.04
352	41830 27 30 30 301 301 1 6042.1740984781 6042.1740984781 6042.1740984781 36507867.83632
353	41857 16 30 30 301 301 1 23.4 23.4 23.4 547.56
354	41873 27 30 30 301 301 1 5744.5002288658 5744.5002288658 5744.5002288658 32999282.87944
355	41900 16 30 30 301 301 1 23.4 23.4 23.4 547.56
356	41916 27 30 30 301 301 1 5703.2341492535 5703.2341492535 5703.2341492535 32526879.761211
357	41943 16 30 30 301 301 1 20.2 20.2 20.2 408.04
358	41959 27 30 30 301 301 1 5769.3262286444 5769.3262286444 5769.3262286444 33285125.132524
359	41986 16 30 30 301 301 1 23.4 23.4 23.4 547.56
360	42002 27 30 30 301 301 1 5793.8188857162 5793.8188857162 5793.8188857162 33568337.280482
361	42029 16 30 30 301 301 1 20.2 20.2 20.2 408.04
362	42045 27 30 30 301 301 1 6194.7393747376 6194.7393747376 6194.7393747376 38374795.920924
363	42072 16 30 30 301 301 1 20.2 20.2 20.2 408.04
364	42088 27 30 30 301 301 1 6252.4361735203 6252.4361735203 6252.4361735203 39092958.103945
365	42115 16 30 30 301 301 1 20.2 20.2 20.2 408.04
366	42131 25 30 30 301 301 1 6062.27720449 6062.27720449 6062.27720449 36751204.904079
367	42156 16 30 30 301 301 1 23.4 23.4 23.4 547.56
368	42172 27 30 30 301 301 1 6082.3990783113 6082.3990783113 6082.3990783113 36995578.547843
369	42199 16 30 30 301 301 1 23.4 23.4 23.4 547.56
370	42215 27 30 30 301 301 1 6086.7650485922 6086.7650485922 6086.7650485922 37048708.756763
371	42242 16 30 30 301 301 1 20.2 20.2 20.2 408.04
372	42258 26 30 30 301 301 1 4346.538393937 4346.538393937 4346.538393937 18892396.009968
373	42284 16 30 30 301 301 1 20.2 20.2 20.2 408.04
374	42300 27 30 30 301 301 1 6396.8002382354 6396.8002382354 6396.8002382354 40919053.287888
375	42327 16 30 30 301 301 1 20.2 20.2 20.2 408.04
376	42343 26 30 30 301 301 1 6119.410623597 6119.410623597 6119.410623597 37447186.380192
377	42369 16 30 30 301 301 1 23.4 23.4 23.4 547.56
378	42385 26 30 30 301 301 1 6258.144473805 6258.144473805 6258.144473805 39164372.255016
379	42411 16 30 30 301 301 1 23.4 23.4 23.4 547.56
380	42427 27 30 30 301 301 1 6947.0791307205 6947.0791307205 6947.0791307205 48261908.448492
381	42454 16 30 30 301 301 1 20.2 20.2 20.2 408.04
382	42470 27 30 30 301 301 1 6535.8587327436 6535.8587327436 6535.8587327436 42717449.374381
383	42497 16 30 30 301 301 1 20.2 20.2 20.2 408.04
384	42513 27 30 30 301 301 1 6683.4045748875 6683.4045748875 6683.4045748875 44667896.711628
385	42540 16 30 30 301 301 1 20.2 20.2 20.2 408.04
386	42556 26 30 30 301 301 1 6357.939358933 6357.939358933 6357.939358933 40423392.891869
387	42582 16 30 30 301 301 1 20.2 20.2 20.2 408.04
388	42598 27 30 30 301 301 1 6415.5353506383 6415.5353506383 6415.5353506383 41159093.83529
389	42625 16 30 30 301 301 1 23.4 23.4 23.4 547.56
390	42641 26 30 30 301 301 1 6528.752335337 6528.752335337 6528.752335337 42624607.056168
391	42667 16 30 30 301 301 1 23.4 23.4 23.4 547.56
392	42683 27 30 30 301 301 1 6502.0781980533 6502.0781980533 6502.0781980533 42277020.8936
393	42710 16 30 30 301 301 1 20.2 20.2 20.2 408.04
394	42726 27 30 30 301 301 1 4692.6645606604 4692.6645606604 4692.6645606604 22021100.678879
395	42753 16 30 30 301 301 1 20.2 20.2 20.2 408.04
396	42769 27 30 30 301 301 1 6892.6662382811 6892.6662382811 6892.6662382811 47508847.87234
397	42796 16 30 30 301 301 1 20.2 20.2 20.2 408.04
398	42812 26 30 30 301 301 1 7088.356915062 7088.356915062 7088.356915062 50244803.755307
399	42838 16 30 30 301 301 1 20.2 20.2 20.2 408.04
400	42854 27 30 30 301 301 1 6708.2612657154 6708.2612657154 6708.2612657154 45000769.209098
401	42881 16 30 30 301 301 1 20.2 20.2 20.2 408.04
402	42897 27 30 30 301 301 1 6706.8682172073 6706.8682172073 6706.8682172073 44982081.282985
403	42924 16 30 30 301 301 1 23.4 23.4 23.4 547.56
404	42940 27 30 30 301 301 1 6740.7246265058 6740.7246265058 6740.7246265058 45437368.490382
405	42967 16 30 30 301 301 1 20.2 20.2 20.2 408.04
406	42983 27 30 30 301 301 1 6797.0329269229 6797.0329269229 6797.0329269229 46199656.609674
407	43010 16 30 30 301 301 1 20.2 20.2 20.2 408.04
408	43026 27 30 30 301 301 1 6980.7999528049 6980.7999528049 6980.7999528049 48731567.981081
409	43053 16 30 30 301 301 1 20.2 20.2 20.2 408.04
410	43069 26 30 30 301 301 1 6883.501289466 6883.501289466 6883.501289466 47382590.00208
411	43095 16 30 30 301 301 1 23.4 23.4 23.4 547.56
412	43111 27 30 30 301 301 1 6935.6499739114 6935.6499739114 6935.6499739114 48103240.560618
413	43138 16 30 30 301 301 1 23.4 23.4 23.4 547.56
414	43154 27 30 30 301 301 1 6986.7079082539 6986.7079082539 6986.7079082539 48814087.395258
415	43181 16 30 30 301 301 1 23.4 23.4 23.4 547.56
416	43197 27 30 30 301 301 1 4510.6871508685 4510.6871508685 4510.6871508685 20346298.57301
417	43224 16 30 30 301 301 1 20.2 20.2 20.2 408.04
418	43240 27 30 30 301 301 1 7028.8685118421 7028.8685118421 7028.8685118421 49404992.556765
419	43267 16 30 30 301 301 1 20.2 20.2 20.2 408.04
420	43283 27 30 30 301 301 1 7080.5681979918 7080.5681979918 7080.5681979918 50134446.006412
421	43310 16 30 30 301 301 1 23.4 23.4 23.4 547.56
422	43326 27 30 30 301 301 1 7139.1610837034 7139.1610837034 7139.1610837034 50967620.979065
423	43353 16 30 30 301 301 1 20.2 20.2 20.2 408.04
424	43369 27 30 30 301 301 1 7522.4043481044 7522.4043481044 7522.4043481044 56586567.17638
425	43396 16 30 30 301 301 1 20.2 20.2 20.2 408.04
426	43412 27 30 30 301 301 1 7212.5362851116 7212.5362851116 7212.5362851116 52020679.664051
427	43439 16 30 30 301 301 1 20.2 20.2 20.2 408.04
428	43455 27 30 30 301 301 1 7264.0292903699 7264.0292903699 7264.0292903699 52766121.531351
429	43482 16 30 30 301 301 1 20.2 20.2 20.2 408.04
430	43498 27 30 30 301 301 1 7311.7181085647 7311.7181085647 7311.7181085647 53461221.699113
431	43525 16 30 30 301 301 1 20.2 20.2 20.2 408.04
432	43541 27 30 30 301 301 1 7544.8352777167 7544.8352777167 7544.8352777167 56924539.367879
433	43568 16 30 30 301 301 1 20.2 20.2 20.2 408.04
434	43584 27 30 30 301 301 1 7506.4730619113 7506.4730619113 7506.4730619113 56347137.8292
435	43611 16 30 30 301 301 1 23.4 23.4 23.4 547.56
436	43627 27 30 30 301 301 1 7460.4788487556 7460.4788487556 7460.4788487556 55658744.65273
437	43654 16 30 30 301 301 1 20.2 20.2 20.2 408.04
438	43670 27 30 30 301 301 1 4490.6716192392 4490.6716192392 4490.6716192392 20166131.59184
439	43697 16 30 30 301 301 1 23.4 23.4 23.4 547.56
440	43713 27 30 30 301 301 1 7808.8671874567 7808.8671874567 7808.8671874567 60978406.751338
441	43740 16 30 30 301 301 1 20.2 20.2 20.2 408.04
442	43756 27 30 30 301 301 1 7549.7842088126 7549.7842088126 7549.7842088126 56999241.599635
443	43783 16 30 30 301 301 1 23.4 23.4 23.4 547.56
444	43799 27 30 30 301 301 1 7600.5272776788 7600.5272776788 7600.5272776788 57768014.89874
445	43826 16 30 30 301 301 1 20.2 20.2 20.2 408.04
446	43842 27 30 30 301 301 1 7647.2496606599 7647.2496606599 7647.2496606599 58480427.372463
447	43869 16 30 30 301 301 1 20.2 20.2 20.2 408.04
448	43885 27 30 30 301 301 1 7824.6562639124 7824.6562639124 7824.6562639124 61225245.648383
449	43912 16 30 30 301 301 1 23.4 23.4 23.4 547.56
450	43928 27 30 30 301 301 1 7869.9672542757 7869.9672542757 7869.9672542757 61936384.583372
451	43955 16 30 30 301 301 1 20.2 20.2 20.2 408.04
452	43971 27 30 30 301 301 1 7795.1970488743 7795.1970488743 7795.1970488743 60765097.030778
453	43998 16 30 30 301 301 1 23.4 23.4 23.4 547.56
454	44014 27 30 30 301 301 1 8059.0618981175 8059.0618981175 8059.0618981175 64948478.67769
455	44041 16 30 30 301 301 1 20.2 20.2 20.2 408.04
456	44057 27 30 30 301 301 1 8455.1609475984 8455.1609475984 8455.1609475984 71489746.649794
457	44084 16 30 30 301 301 1 20.2 20.2 20.2 408.04
458	44100 27 30 30 301 301 1 8249.8182054767 8249.8182054767 8249.8182054767 68059500.423414
459	44127 16 30 30 301 301 1 20.2 20.2 20.2 408.04
460	44143 26 30 30 301 301 1 6024.393012609 6024.393012609 6024.393012609 36293311.170373
461	44169 16 30 30 301 301 1 20.2 20.2 20.2 408.04
462	44185 27 30 30 301 301 1 8006.4883549416 8006.4883549416 8006.4883549416 64103855.777815
463	44212 16 30 30 301 301 1 20.2 20.2 20.2 408.04
464	44228 27 30 30 301 301 1 8126.6466614687 8126.6466614687 8126.6466614687 66042385.960361
465	44255 16 30 30 301 301 1 20.2 20.2 20.2 408.04
466	44271 27 30 30 301 301 1 8096.7039559176 8096.7039559176 8096.7039559176 65556614.949772
467	44298 16 30 30 301 301 1 23.4 23.4 23.4 547.56
468	44314 27 30 30 301 301 1 8407.1585708087 8407.1585708087 8407.1585708087 70680315.234722
469	44341 16 30 30 301 301 1 20.2 20.2 20.2 408.04
470	44357 27 30 30 301 301 1 8243.8975620137 8243.8975620137 8243.8975620137 67961847.012975
471	44384 16 30 30 301 301 1 23.4 23.4 23.4 547.56
472	44400 27 30 30 301 301 1 8273.7286007564 8273.7286007564 8273.7286007564 68454584.958974
473	44427 16 30 30 301 301 1 20.2 20.2 20.2 408.04
474	44443 27 30 30 301 301 1 8272.8190583192 8272.8190583192 8272.8190583192 68439535.17169
475	44470 16 30 30 301 301 1 23.4 23.4 23.4 547.56
476	44486 27 30 30 301 301 1 8320.3192588084 8320.3192588084 8320.3192588084 69227712.568498
477	44513 16 30 30 301 301 1 20.2 20.2 20.2 408.04
478	44529 27 30 30 301 301 1 8393.5470335002 8393.5470335002 8393.5470335002 70451631.80358
479	44556 16 30 30 301 301 1 23.4 23.4 23.4 547.56
480	44572 27 30 30 301 301 1 8418.6736308267 8418.6736308267 8418.6736308267 70874065.702377
481	44599 16 30 30 301 301 1 23.4 23.4 23.4 547.56
482	44615 27 30 30 301 301 1 4912.0247241794 4912.0247241794 4912.0247241794 24127986.89095
483	44642 16 30 30 301 301 1 20.2 20.2 20.2 408.04
484	44658 27 30 30 301 301 1 8551.3992594654 8551.3992594654 8551.3992594654 73126429.294785
485	44685 16 30 30 301 301 1 20.2 20.2 20.2 408.04
486	44701 27 30 30 301 301 1 8662.8626983421 8662.8626983421 8662.8626983421 75045190.130327
487	44728 16 30 30 301 301 1 20.2 20.2 20.2 408.04
488	44744 26 30 30 301 301 1 8614.572361609 8614.572361609 8614.572361609 74210856.973398
489	44770 16 30 30 301 301 1 20.2 20.2 20.2 408.04
490	44786 27 30 30 301 301 1 8772.2165275953 8772.2165275953 8772.2165275953 76951782.807016
491	44813 16 30 30 301 301 1 20.2 20.2 20.2 408.04
492	44829 27 30 30 301 301 1 8724.4616084165 8724.4616084165 8724.4616084165 76116230.356733
493	44856 16 30 30 301 301 1 20.2 20.2 20.2 408.04
494	44872 27 30 30 301 301 1 8723.7046760032 8723.7046760032 8723.7046760032 76103023.27412
495	44899 16 30 30 301 301 1 23.4 23.4 23.4 547.56
496	44915 27 30 30 301 301 1 8748.8784705157 8748.8784705157 8748.8784705157 76542874.491853
497	44942 16 30 30 301 301 1 23.4 23.4 23.4 547.56
498	44958 27 30 30 301 301 1 8797.5491535231 8797.5491535231 8797.5491535231 77396871.108655
499	44985 16 30 30 301 301 1 23.4 23.4 23.4 547.56
500	45001 26 30 30 301 301 1 8841.876176474 8841.876176474 8841.876176474 78178774.320098
501	45027 16 30 30 301 301 1 20.2 20.2 20.2 408.04
502	45043 27 30 30 301 301 1 8911.8433855505 8911.8433855505 8911.8433855505 79420952.52858
503	45070 16 30 30 301 301 1 20.2 20.2 20.2 408.04
vector 504 RSUExampleScenario2.node[0].veinsmobility speed ETV
vector 505 RSUExampleScenario2.node[1].veinsmobility speed ETV
vector 506 RSUExampleScenario2.node[2].veinsmobility speed ETV
vector 507 RSUExampleScenario2.node[3].veinsmobility speed ETV
vector 508 RSUExampleScenario2.node[4].veinsmobility speed ETV
vector 509 RSUExampleScenario2.node[5].veinsmobility speed ETV
vector 510 RSUExampleScenario2.node[6].veinsmobility speed ETV
vector 511 RSUExampleScenario2.node[7].veinsmobility speed ETV
vector 512 RSUExampleScenario2.node[8].veinsmobility speed ETV
vector 513 RSUExampleScenario2.node[9].veinsmobility speed ETV
vector 514 RSUExampleScenario2.node[10].veinsmobility speed ETV
vector 515 RSUExampleScenario2.node[11].veinsmobility speed ETV
vector 516 RSUExampleScenario2.node[12].veinsmobility speed ETV
vector 517 RSUExampleScenario2.node[13].veinsmobility speed ETV
vector 518 RSUExampleScenario2.node[14].veinsmobility speed ETV
vector 519 RSUExampleScenario2.node[15].veinsmobility speed ETV
vector 520 RSUExampleScenario2.node[16].veinsmobility speed ETV
vector 521 RSUExampleScenario2.node[17].veinsmobility speed ETV
vector 522 RSUExampleScenario2.node[18].veinsmobility speed ETV
vector 523 RSUExampleScenario2.node[19].veinsmobility speed ETV
vector 524 RSUExampleScenario2.node[20].veinsmobility speed ETV
vector 525 RSUExampleScenario2.node[21].veinsmobility speed ETV
vector 526 RSUExampleScenario2.node[22].veinsmobility speed ETV
vector 527 RSUExampleScenario2.node[23].veinsmobility speed ETV
vector 528 RSUExampleScenario2.node[24].veinsmobility speed ETV
vector 529 RSUExampleScenario2.node[25].veinsmobility speed ETV
vector 530 RSUExampleScenario2.node[26].veinsmobility speed ETV
vector 531 RSUExampleScenario2.node[27].veinsmobility speed ETV
vector 532 RSUExampleScenario2.node[28].veinsmobility speed ETV
vector 533 RSUExampleScenario2.node[29].veinsmobility speed ETV
vector 534 RSUExampleScenario2.node[30].veinsmobility speed ETV
vector 535 RSUExampleScenario2.node[31].veinsmobility speed ETV
vector 536 RSUExampleScenario2.node[32].veinsmobility speed ETV
vector 537 RSUExampleScenario2.node[33].veinsmobility speed ETV
vector 538 RSUExampleScenario2.node[34].veinsmobility speed ETV
vector 539 RSUExampleScenario2.node[35].veinsmobility speed ETV
vector 540 RSUExampleScenario2.node[36].veinsmobility speed ETV
vector 541 RSUExampleScenario2.node[37].veinsmobility speed ETV
vector 542 RSUExampleScenario2.node[38].veinsmobility speed ETV
vector 543 RSUExampleScenario2.node[39].veinsmobility speed ETV
vector 544 RSUExampleScenario2.node[40].veinsmobility speed ETV
vector 545 RSUExampleScenario2.node[41].veinsmobility speed ETV
vector 546 RSUExampleScenario2.node[42].veinsmobility speed ETV
vector 547 RSUExampleScenario2.node[43].veinsmobility speed ETV
vector 548 RSUExampleScenario2.node[44].veinsmobility speed ETV
vector 549 RSUExampleScenario2.node[45].veinsmobility speed ETV
vector 550 RSUExampleScenario2.node[46].veinsmobility speed ETV
vector 551 RSUExampleScenario2.node[47].veinsmobility speed ETV
vector 552 RSUExampleScenario2.node[48].veinsmobility speed ETV
vector 553 RSUExampleScenario2.node[49].veinsmobility speed ETV
vector 554 RSUExampleScenario2.node[50].veinsmobility speed ETV
vector 555 RSUExampleScenario2.node[51].veinsmobility speed ETV
vector 556 RSUExampleScenario2.node[52].veinsmobility speed ETV
vector 557 RSUExampleScenario2.node[53].veinsmobility speed ETV
vector 558 RSUExampleScenario2.node[54].veinsmobility speed ETV
vector 559 RSUExampleScenario2.node[55].veinsmobility speed ETV
vector 560 RSUExampleScenario2.node[56].veinsmobility speed ETV
vector 561 RSUExampleScenario2.node[57].veinsmobility speed ETV
vector 562 RSUExampleScenario2.node[58].veinsmobility speed ETV
vector 563 RSUExampleScenario2.node[59].veinsmobility speed ETV
vector 564 RSUExampleScenario2.node[60].veinsmobility speed ETV
vector 565 RSUExampleScenario2.node[61].veinsmobility speed ETV
vector 566 RSUExampleScenario2.node[62].veinsmobility speed ETV
vector 567 RSUExampleScenario2.node[63].veinsmobility speed ETV
vector 568 RSUExampleScenario2.node[64].veinsmobility speed ETV
vector 569 RSUExampleScenario2.node[65].veinsmobility speed ETV
vector 570 RSUExampleScenario2.node[66].veinsmobility speed ETV
vector 571 RSUExampleScenario2.node[67].veinsmobility speed ETV
vector 572 RSUExampleScenario2.node[68].veinsmobility speed ETV
vector 573 RSUExampleScenario2.node[69].veinsmobility speed ETV
vector 574 RSUExampleScenario2.node[70].veinsmobility speed ETV
vector 575 RSUExampleScenario2.node[71].veinsmobility speed ETV
vector 576 RSUExampleScenario2.node[72].veinsmobility speed ETV
vector 577 RSUExampleScenario2.node[73].veinsmobility speed ETV
vector 578 RSUExampleScenario2.node[74].veinsmobility speed ETV
vector 579 RSUExampleScenario2.node[75].veinsmobility speed ETV
vector 580 RSUExampleScenario2.node[76].veinsmobility speed ETV
vector 581 RSUExampleScenario2.node[77].veinsmobility speed ETV
vector 582 RSUExampleScenario2.node[78].veinsmobility speed ETV
vector 583 RSUExampleScenario2.node[79].veinsmobility speed ETV
vector 584 RSUExampleScenario2.node[80].veinsmobility speed ETV
vector 585 RSUExampleScenario2.node[81].veinsmobility speed ETV
vector 586 RSUExampleScenario2.node[82].veinsmobility speed ETV
vector 587 RSUExampleScenario2.node[83].veinsmobility speed ETV
vector 588 RSUExampleScenario2.node[84].veinsmobility speed ETV
vector 589 RSUExampleScenario2.node[85].veinsmobility speed ETV
vector 590 RSUExampleScenario2.node[86].veinsmobility speed ETV
vector 591 RSUExampleScenario2.node[87].veinsmobility speed ETV
vector 592 RSUExampleScenario2.node[88].veinsmobility speed ETV
vector 593 RSUExampleScenario2.node[89].veinsmobility speed ETV
vector 594 RSUExampleScenario2.node[90].veinsmobility speed ETV
vector 595 RSUExampleScenario2.node[91].veinsmobility speed ETV
vector 596 RSUExampleScenario2.node[92].veinsmobility speed ETV
vector 597 RSUExampleScenario2.node[93].veinsmobility speed ETV
vector 598 RSUExampleScenario2.node[94].veinsmobility speed ETV
vector 599 RSUExampleScenario2.node[95].veinsmobility speed ETV
vector 600 RSUExampleScenario2.node[96].veinsmobility speed ETV
vector 601 RSUExampleScenario2.node[97].veinsmobility speed ETV
vector 602 RSUExampleScenario2.node[98].veinsmobility speed ETV
vector 603 RSUExampleScenario2.node[99].veinsmobility speed ETV
vector 604 RSUExampleScenario2.node[100].veinsmobility speed ETV
vector 605 RSUExampleScenario2.node[101].veinsmobility speed ETV
vector 606 RSUExampleScenario2.node[102].veinsmobility speed ETV
vector 607 RSUExampleScenario2.node[103].veinsmobility speed ETV
vector 608 RSUExampleScenario2.node[104].veinsmobility speed ETV
vector 609 RSUExampleScenario2.node[105].veinsmobility speed ETV
vector 610 RSUExampleScenario2.node[106].veinsmobility speed ETV
vector 611 RSUExampleScenario2.node[107].veinsmobility speed ETV
vector 612 RSUExampleScenario2.node[108].veinsmobility speed ETV
vector 613 RSUExampleScenario2.node[109].veinsmobility speed ETV
vector 614 RSUExampleScenario2.node[110].veinsmobility speed ETV
vector 615 RSUExampleScenario2.node[111].veinsmobility speed ETV
vector 616 RSUExampleScenario2.node[112].veinsmobility speed ETV
vector 617 RSUExampleScenario2.node[113].veinsmobility speed ETV
vector 618 RSUExampleScenario2.node[114].veinsmobility speed ETV
vector 619 RSUExampleScenario2.node[115].veinsmobility speed ETV
vector 620 RSUExampleScenario2.node[116].veinsmobility speed ETV
vector 621 RSUExampleScenario2.node[117].veinsmobility speed ETV
vector 622 RSUExampleScenario2.node[118].veinsmobility speed ETV
vector 623 RSUExampleScenario2.node[119].veinsmobility speed ETV
vector 624 RSUExampleScenario2.node[120].veinsmobility speed ETV
vector 625 RSUExampleScenario2.node[121].veinsmobility speed ETV
vector 626 RSUExampleScenario2.node[122].veinsmobility speed ETV
vector 627 RSUExampleScenario2.node[123].veinsmobility speed ETV
vector 628 RSUExampleScenario2.node[124].veinsmobility speed ETV
vector 629 RSUExampleScenario2.node[125].veinsmobility speed ETV
vector 630 RSUExampleScenario2.node[126].veinsmobility speed ETV
vector 631 RSUExampleScenario2.node[127].veinsmobility speed ETV
vector 632 RSUExampleScenario2.node[128].veinsmobility speed ETV
vector 633 RSUExampleScenario2.node[129].veinsmobility speed ETV
vector 634 RSUExampleScenario2.node[130].veinsmobility speed ETV
vector 635 RSUExampleScenario2.node[131].veinsmobility speed ETV
vector 636 RSUExampleScenario2.node[132].veinsmobility speed ETV
vector 637 RSUExampleScenario2.node[133].veinsmobility speed ETV
vector 638 RSUExampleScenario2.node[134].veinsmobility speed ETV
vector 639 RSUExampleScenario2.node[135].veinsmobility speed ETV
vector 640 RSUExampleScenario2.node[136].veinsmobility speed ETV
vector 641 RSUExampleScenario2.node[137].veinsmobility speed ETV
vector 642 RSUExampleScenario2.node[138].veinsmobility speed ETV
vector 643 RSUExampleScenario2.node[139].veinsmobility speed ETV
vector 644 RSUExampleScenario2.node[140].veinsmobility speed ETV
vector 645 RSUExampleScenario2.node[141].veinsmobility speed ETV
vector 646 RSUExampleScenario2.node[142].veinsmobility speed ETV
vector 647 RSUExampleScenario2.node[143].veinsmobility speed ETV
vector 648 RSUExampleScenario2.node[144].veinsmobility speed ETV
vector 649 RSUExampleScenario2.node[145].veinsmobility speed ETV
vector 650 RSUExampleScenario2.node[146].veinsmobility speed ETV
[...]
1373	3100984 1125 78546 83912 343 379 37 0.973 3.0955657994679 94.892249571329 254.48805849299
1374	3102109 1143 78546 83912 343 379 37 19.06930111844 19.995839306666 733.8442719785 14557.235741258
1375	3103252 1142 78546 83912 343 379 37 19.272031134032 19.364325646791 714.91248151276 13813.536107142
1376	3104394 1231 78546 83912 343 379 37 -0.21308528284569 0.90362226619679 0.35714503618642 1.190767624661
1377	3105625 1140 78546 83912 343 379 37 1.7096746637599 7.1677224284107 104.99266238095 326.17527002658
1378	3106765 1241 78546 83912 343 379 37 -0.067139475024305 0.069831141340547 -0.0010628230636911 0.045018269086787
1379	3108006 1145 78546 83912 343 379 37 2.391074987677 3.0381872616179 100.21428882587 272.43792061445
1380	3109151 1141 78546 83912 343 379 37 118.78406779461 810.65170325277 17154.749405375 9520123.3562623
1381	3110292 740 78546 83912 343 379 37 29.8 29.8 1102.6 32857.48
1382	3111032 1145 78546 83912 343 379 37 9258.8105735008 9929.3647282035 354999.73769097 3407543334.2003
1383	3112177 740 78546 83912 343 379 37 20.2 20.2 747.4 15097.48
1384	3112917 1140 78546 83912 343 379 37 18.133618640863 19.33091588042 711.98235446795 13701.799579521
1385	3114057 1144 78546 83912 343 379 37 18.325240646894 18.704663306336 689.66522446968 12855.220145322
1386	3115201 1144 78546 83912 343 379 37 80.610007389318 776.78019435252 15590.802548958 8199651.6569599
1387	3116345 740 78546 83912 343 379 37 26.6 29.8 1032.2 28886.92
1388	3117085 1143 78546 83912 343 379 37 9265.5050038071 9967.4610146851 356078.92473797 3428472521.8519
1389	3118228 740 78546 83912 343 379 37 23.4 23.4 865.8 20259.72
1390	3118968 1233 78546 83912 343 379 37 -0.092117573739962 1.4903077079914 2.6395839002889 3.6124996522722
1391	3120201 1143 78546 83912 343 379 37 2.268470754695 9.0485524605534 111.63950124719 403.58561448192
1392	3121344 1240 78546 83912 343 379 37 -0.08078322177753 1.5197978385724 1.8157220573077 2.4696104228332
1393	3122584 1146 78546 83912 343 379 37 2.2402962820785 9.2745075297348 104.52412388576 341.2471491562
1394	3123730 1141 78546 83912 343 379 37 14.246216112553 19.846086353473 718.91216673799 14020.136330165
1395	3124871 1141 78546 83912 343 379 37 14.279390315721 19.994017192861 724.78787512997 14249.469501367
1396	3126012 1238 78546 83912 343 379 37 -0.047183075663632 1.5414665642427 7.132298309192 10.125410326641
1397	3127250 1139 78546 83912 343 379 37 2.5565055116156 9.351364224244 130.26973831969 587.93671479712
1398	3128389 1235 78546 83912 343 379 37 -0.075403881631793 1.5712378637865 7.0647470622457 10.433788656926
1399	3129624 1146 78546 83912 343 379 37 2.4365747375961 9.7144778710216 131.11712041327 602.59380389968
1400	3130770 1142 78546 83912 343 379 37 53.84093705526 683.88752533627 13173.629233155 6060941.6803994
1401	3131912 740 78546 83912 343 379 37 29.8 29.8 1102.6 32857.48
1402	3132652 1137 78546 83912 343 379 37 9314.2050014177 9994.1706715897 357800.34670967 3461636906.5261
1403	3133789 740 78546 83912 343 379 37 20.2 20.2 747.4 15097.48
1404	3134529 1141 78546 83912 343 379 37 10.206217475244 18.380566798117 652.53397272851 11640.054265893
1405	3135670 1143 78546 83912 343 379 37 10.802757935023 19.999736835295 704.56792039224 13607.981474981
1406	3136813 1142 78546 83912 343 379 37 37.423159987678 578.09895529604 10802.986595333 4186520.9700807
1407	3137955 740 78546 83912 343 379 37 26.6 29.8 1070.6 31052.68
1408	3138695 1146 78546 83912 343 379 37 9360.5321418997 10012.050225874 359385.2736064 3492283817.1364
1409	3139841 740 78546 83912 343 379 37 20.2 23.4 785.8 16771.72
1410	3140581 1227 78546 83912 343 379 37 -0.080734544852749 1.6629019650165 9.5889763744593 14.014221043937
1411	3141808 1139 78546 83912 343 379 37 2.2006797910822 9.5058800080733 124.9630858212 541.90060787694
1412	3142947 1232 78546 83912 343 379 37 -0.080979252513497 1.6727280335501 10.600438719655 15.603377916832
1413	3144179 1143 78546 83912 343 379 37 2.4122078697992 9.9957369783634 138.76818842665 672.49696344939
1414	3145322 1142 78546 83912 343 379 37 7.0143647896788 16.108908541012 561.22976028092 8697.0363494012
1415	3146464 1141 78546 83912 343 379 37 7.1046836484299 19.99779067249 677.52533469607 12855.545606367
1416	3147605 1142 78546 83912 343 379 37 28.609815828876 637.87307188471 10804.44337749 4561429.7457643
1417	3148747 740 78546 83912 343 379 37 26.6 26.6 984.2 26179.72
1418	3149487 1145 78546 83912 343 379 37 9513.8110923187 10021.170735832 362355.87971677 3549651323.6852
1419	3150632 740 78546 83912 343 379 37 20.2 20.2 747.4 15097.48
1420	3151372 1217 78546 83912 343 379 37 -0.073179770214484 1.5533556145849 10.560680265821 15.078945864535
1421	3152589 1145 78546 83912 343 379 37 1.9807398596626 7.5241976111551 109.90535008679 407.42844701079
1422	3153734 1218 78546 83912 343 379 37 -0.078120482852682 1.6452030089218 14.222990150835 21.372628076429
1423	3154952 1139 78546 83912 343 379 37 2.424887958799 10.021743263623 143.13492423923 707.293705538
1424	3156091 1144 78546 83912 343 379 37 3.1926246432889 19.999128670315 637.42862902366 11885.968798248
1425	3157235 1144 78546 83912 343 379 37 3.3895705882162 15.914936529168 529.32879080458 7997.0987946839
1426	3158379 1210 78546 83912 343 379 37 -0.081634460994973 1.6291172452737 18.118693590413 27.649502466659
1427	3159589 1143 78546 83912 343 379 37 2.3270246577754 10.122888078611 143.75336812811 724.3824220519
1428	3160732 1217 78546 83912 343 379 37 -0.085005192109385 1.6421255608089 13.852806313131 20.940234995399
1429	3161949 1147 78546 83912 343 379 37 1.9157857678853 7.9535717947574 110.26942858824 419.96032156284
1430	3163096 1116 78661 83912 344 379 36 27.982638493783 587.70371829519 9288.3561443354 3587760.4464993
1431	3164212 720 78661 83912 344 379 36 26.6 26.6 957.6 25472.16
1432	3164932 1111 78661 83912 344 379 36 9466.4192397671 10021.881513472 352580.14809275 3454296901.4219
1433	3166043 720 78661 83912 344 379 36 20.2 23.4 765.6 16363.68
1434	3166763 1083 78778 83912 345 379 35 2.7419538218367 19.997464074777 588.2338769135 10862.494520612
1435	3167846 1082 78778 83912 345 379 35 2.7340749883541 19.994090096513 583.91879145698 10681.301330747
1436	3168928 1050 78893 83912 346 379 34 27.712673226683 539.24373977213 7908.1248328749 2789696.635159
1437	3169978 680 78893 83912 346 379 34 29.8 29.8 1013.2 30193.36
1438	3170658 1049 78893 83912 346 379 34 9575.3261391587 10022.283475724 334380.81866931 3289263162.1364
1439	3171707 680 78893 83912 346 379 34 20.2 23.4 731.6 15826.64
1440	3172387 1115 78893 83912 346 379 34 -0.061942774686031 1.5659891363699 17.22403249358 24.788179946296
1441	3173502 1052 78893 83912 346 379 34 2.5051465254844 8.9915225323197 135.30288076965 674.14896989483
1442	3174554 1105 78893 83912 346 379 34 -0.75951235656998 1.618671285687 17.247583526817 27.793527270922
1443	3175659 1030 78893 83912 346 379 34 0.973 9.2869443698116 138.12531085019 731.80385289482
1444	3176689 1017 79122 83912 347 379 33 2.0778472073696 19.997757933638 540.10991667842 9894.9174262022
1445	3177706 1022 79122 83912 347 379 33 2.2067378683662 16.484745369251 470.23661280418 7259.2227198325
1446	3178728 1042 79239 83912 348 379 32 -0.090490877053064 1.634083167999 17.793266385848 26.884555997253
1447	3179770 990 79239 83912 348 379 32 2.3600625441173 10.30406747019 129.19852451626 681.98085329564
1448	3180760 1049 79239 83912 348 379 32 -0.082082893955519 1.5900223513832 14.264044021918 21.620694142822
1449	3181809 989 79239 83912 348 379 32 1.9844638947647 8.0485779429833 103.46101976426 423.46576830354
1450	3182798 958 79354 83912 349 379 31 28.403042376312 469.21414716424 6508.5173217131 2004845.1982164
1451	3183756 620 79354 83912 349 379 31 26.6 29.8 875.8 24822.04
1452	3184376 955 79354 83912 349 379 31 9570.5441074619 10021.589845861 304990.63077674 3001287986.3316
1453	3185331 620 79354 83912 349 379 31 20.2 23.4 661.4 14183.96
1454	3185951 924 79471 83912 350 379 30 3.2102678944247 18.385795451738 466.53544972367 7902.6633456115
1455	3186875 927 79471 83912 350 379 30 2.9386744592121 19.356675026107 478.19947438748 8379.1675726314
1456	3187802 898 79586 83912 351 379 29 27.887377865971 443.74499635663 5603.136333989 1622328.2636463
1457	3188700 580 79586 83912 351 379 29 29.8 29.8 864.2 25753.16
1458	3189280 896 79586 83912 351 379 29 9608.0876972673 10022.122931823 285979.25280155 2820674474.0165
1459	3190176 580 79586 83912 351 379 29 23.4 23.4 678.6 15879.24
1460	3190756 939 79586 83912 351 379 29 -0.063994668889791 1.5783968661679 15.110942809914 22.165829270605
1461	3191695 896 79586 83912 351 379 29 2.2754914199297 8.8158581442707 109.22277815025 516.62509467916
1462	3192591 936 79586 83912 351 379 29 -0.49348609904115 1.6948134358739 16.403199175517 27.102769412594
1463	3193527 878 79586 83912 351 379 29 0.9081480650645 9.1474809588667 117.67827882201 650.79233789185
1464	3194405 866 79821 83912 352 379 28 2.6391983731345 19.54007869954 442.5396558236 7802.1739904181
1465	3195271 865 79821 83912 352 379 28 2.4805412291395 19.987503018999 442.33500343056 7922.387765693
1466	3196136 833 79938 83912 353 379 27 27.619404260932 402.165730549 4593.0866208062 1190001.995428
1467	3196969 540 79938 83912 353 379 27 26.6 26.6 718.2 19104.12
1468	3197509 835 79938 83912 353 379 27 9655.1074417833 10022.380245554 266860.19189542 2637961534.3088
1469	3198344 540 79938 83912 353 379 27 20.2 20.2 545.4 11017.08
1470	3198884 876 79938 83912 353 379 27 -0.2225440834848 1.7346155947074 16.107936189476 25.689926330677
1471	3199760 828 79938 83912 353 379 27 1.6281774679302 9.6209023512828 109.05200232138 582.68621779577
1472	3200588 875 79938 83912 353 379 27 -0.066531920479608 1.6291310825152 17.46073480108 25.590530861212
1473	3201463 836 79938 83912 353 379 27 2.4796061700404 10.444774758273 115.20995463867 637.2062341577
1474	3202299 804 80185 83912 354 379 26 1.8482912418726 19.986986929877 403.39367041402 7186.5817309744
1475	3203103 802 80185 83912 354 379 26 1.8367507865321 19.817208748763 395.63687616249 6956.5234172755
1476	3203905 807 80302 83912 355 379 25 -0.059938817191867 1.7086878622416 18.065640724561 27.477593132686
1477	3204712 774 80302 83912 355 379 25 2.5125172516692 9.4885414555292 110.24559790838 616.82915490876
1478	3205486 809 80302 83912 355 379 25 -0.079856610251589 1.6514767376706 17.942182985457 26.461554981065
1479	3206295 773 80302 83912 355 379 25 2.3902451496194 9.7819136169258 108.58268589541 600.98927752035
1480	3207068 741 80417 83912 356 379 24 28.105920852291 344.66160863523 3539.9880781456 779288.37887577
1481	3207809 480 80417 83912 356 379 24 26.6 29.8 676.8 19147.2
1482	3208289 740 80417 83912 356 379 24 9699.6964067749 10021.874868666 237616.47524265 2352833044.6822
1483	3209029 480 80417 83912 356 379 24 20.2 23.4 545.6 12443.84
1484	3209509 709 80534 83912 357 379 23 2.8043805588273 19.61246082565 344.16171708476 5894.2336370371
1485	3210218 710 80534 83912 357 379 23 2.7399783912586 19.999522320135 350.29439748636 6123.9282735145
1486	3210928 681 80649 83912 358 379 22 27.658927801177 301.27353930808 2793.4117734652 531927.66235577
1487	3211609 440 80649 83912 358 379 22 26.6 29.8 626.8 17912.56
1488	3212049 679 80649 83912 358 379 22 9749.070624415 10022.341708775 218338.39301172 2167069263.0463
1489	3212728 440 80649 83912 358 379 22 20.2 23.4 489.2 10930.16
1490	3213168 707 80649 83912 358 379 22 -0.08759219001513 1.6443539606174 16.732476588583 23.868084077093
1491	3213875 678 80649 83912 358 379 22 2.326599841312 9.7116082958995 98.678147080721 545.49681171868
1492	3214553 711 80649 83912 358 379 22 -0.088329903385603 1.6895177941071 17.212060061073 25.321963621363
1493	3215264 681 80649 83912 358 379 22 2.3758862354481 9.9693143166863 101.7729245873 586.5277039422
1494	3215945 651 80890 83912 359 379 21 2.0498344658599 19.591474285144 301.54205282721 5090.3995047745
1495	3216596 647 80890 83912 359 379 21 2.0036932875314 19.99132834929 301.78183384914 5156.3347146973
1496	3217243 642 81007 83912 360 379 20 -0.086691045202315 1.643770917505 17.460789917139 26.314702080122
1497	3217885 618 81007 83912 360 379 20 2.3288882776199 9.7933555788193 93.637182921601 544.45012706375
1498	3218503 639 81007 83912 360 379 20 -0.039231404312886 1.7112579152221 17.976486286926 26.874422673953
1499	3219142 618 81007 83912 360 379 20 2.501642515085 9.6443342184045 96.225236381247 579.3680102812
1500	3219760 588 81122 83912 361 379 19 28.401272324624 256.68680327031 2102.0040856927 337121.1861091
1501	3220348 380 81122 83912 361 379 19 29.8 29.8 566.2 16872.76
1502	3220728 588 81122 83912 361 379 19 9790.4367854869 10021.565201494 188817.51760921 1876531464.8197
1503	3221316 380 81122 83912 361 379 19 20.2 20.2 383.8 7752.76
1504	3221696 557 81245 83912 362 379 18 3.098740742532 19.998288787086 256.54614157974 4272.9572048753
1505	3222253 554 81245 83912 362 379 18 3.276753140522 19.990780263371 259.38804993112 4342.6916058145
1506	3222807 527 81366 83912 363 379 17 27.884014967953 198.65143841146 1484.214365277 181833.75003673
1507	3223334 340 81366 83912 363 379 17 26.6 29.8 458.6 12389.48
1508	3223674 526 81366 83912 363 379 17 9840.6393451551 10022.122752376 169311.92348264 1686324637.892
1509	3224200 340 81366 83912 363 379 17 20.2 20.2 343.4 6936.68
1510	3224540 535 81366 83912 363 379 17 -0.070856689871288 1.6596926714294 16.874379630653 25.030721947247
1511	3225075 526 81366 83912 363 379 17 2.4620249856288 9.8350230768884 88.095078727516 550.24244355526
1512	3225601 539 81366 83912 363 379 17 -0.061386150936595 1.6227059616009 16.714027122849 25.20490046913
1513	3226140 525 81366 83912 363 379 17 2.5072472760816 9.6397265497482 88.327871718666 559.87228121834
1514	3226665 493 81607 83912 364 379 16 2.4508735906299 18.077598138166 196.45708233493 2883.4586723951
1515	3227158 496 81607 83912 364 379 16 2.5418497272261 19.982556139608 209.86088513217 3317.7726466858
1516	3227654 442 81730 83912 365 379 15 27.6 159.92192846923 1068.6101115611 103675.49042513
1517	3228096 300 81730 83912 365 379 15 29.8 29.8 447 13320.6
1518	3228396 464 81730 83912 365 379 15 9886.4253823656 10022.380937775 149667.0507416 1493377154.1904
1519	3228860 300 81730 83912 365 379 15 20.2 20.2 303 6120.6
1520	3229160 477 81730 83912 365 379 15 -0.064048403152263 1.5668934543151 15.562387256852 22.256236649333
1521	3229637 464 81730 83912 365 379 15 2.2408582676185 8.0133088287006 71.31040981123 404.14250205577
1522	3230101 470 81730 83912 365 379 15 -0.039356289338318 1.6298721164931 17.428904033922 25.623369285838
1523	3230571 459 81730 83912 365 379 15 2.6106149315731 9.559940285098 82.306313624809 527.85894121374
1524	3231030 433 81983 83912 366 379 14 1.7531970001486 18.454643410911 158.92287575923 2250.9540178708
1525	3231463 433 81983 83912 366 379 14 1.8968691469899 19.996989720571 164.63762535703 2442.415256949
1526	3231896 406 82100 83912 367 379 13 -0.067799498024396 1.6430652345065 16.66135545576 25.4110463348
1527	3232302 402 82100 83912 367 379 13 2.2707873062308 9.0342951115918 68.812470118408 431.41280274063
1528	3232704 405 82100 83912 367 379 13 -0.08645233954303 1.6904973650118 18.013668234038 27.626134463369
1529	3233109 402 82100 83912 367 379 13 2.3848059891664 9.2698185413175 76.669394709588 526.66965020716
1530	3233511 372 82215 83912 368 379 12 28.108033385164 113.50476389444 692.29408861479 49555.924748659
1531	3233883 240 82215 83912 368 379 12 26.6 26.6 319.2 8490.72
1532	3234123 372 82215 83912 368 379 12 9935.1448132262 10021.891507619 119906.61765566 1198142766.0072
1533	3234495 240 82215 83912 368 379 12 23.4 23.4 280.8 6570.72
1534	3234735 338 82338 83912 369 379 11 2.6575099318997 13.662585925147 104.39853192293 1157.9161384985
1535	3235073 340 82338 83912 369 379 11 2.6586109600165 17.49932558035 110.85884837919 1356.0006290434
1536	3235413 307 82459 83912 370 379 10 27.657347581002 81.852574010894 455.58112331258 24056.295367804
1537	3235720 200 82459 83912 370 379 10 26.6 26.6 266 7075.6
1538	3235920 310 82459 83912 370 379 10 9967.1756163205 10022.342930267 100040.65186394 1000816625.5885
1539	3236230 200 82459 83912 370 379 10 20.2 20.2 202 4080.4
1540	3236430 316 82459 83912 370 379 10 -0.0062895020237193 1.6018134660087 11.005075993247 16.106533448348
1541	3236746 309 82459 83912 370 379 10 1.9823175979369 6.4897302232174 40.873592792119 191.19158560404
1542	3237055 309 82459 83912 370 379 10 1.3370442985324 1.6013616754673 14.840714620333 22.081842007003
1543	3237364 309 82459 83912 370 379 10 2.9666860574494 8.7652984511779 56.735677463421 358.14191233316
1544	3237673 274 82712 83912 371 379 9 2.051380464622 14.192998411391 73.888666237295 746.1455615577
1545	3237947 277 82712 83912 371 379 9 2.0796031590728 14.35284556073 75.167296307041 768.90755276347
1546	3238224 245 82829 83912 372 379 8 1.3659908784088 1.625449366169 12.141617946769 18.486041387378
1547	3238469 247 82829 83912 372 379 8 2.7012429867289 7.0997929795558 39.114448465088 207.54093786327
1548	3238716 247 82829 83912 372 379 8 1.4125839938177 1.6897566334344 12.273242401658 18.882322441717
1549	3238963 245 82829 83912 372 379 8 2.8317827705985 6.9617007417881 39.791174650098 213.64266333742
1550	3239208 217 82944 83912 373 379 7 28.275397685397 54.808960448461 262.2695601795 10439.072134404
1551	3239425 140 82944 83912 373 379 7 26.6 26.6 186.2 4952.92
1552	3239565 217 82944 83912 373 379 7 9995.2745531028 10021.580859301 70086.773340128 701737142.77544
1553	3239782 140 82944 83912 373 379 7 23.4 23.4 163.8 3832.92
1554	3239922 186 83087 83912 374 379 6 2.9417629040679 10.428094919715 40.296860224881 310.14609683226
1555	3240108 185 83087 83912 374 379 6 2.9988670328149 10.368046820767 39.977250920854 305.06026552249
1556	3240293 155 83202 83912 375 379 5 27.880093984028 38.145286004263 156.8228229673 4994.9502164022
1557	3240448 100 83202 83912 375 379 5 29.8 29.8 149 4440.2
1558	3240548 155 83202 83912 375 379 5 10012.052717164 10022.115178585 50093.641787686 501874662.5399
1559	3240703 100 83202 83912 375 379 5 20.2 20.2 101 2040.2
1560	3240803 155 83202 83912 375 379 5 1.3701012906618 1.6538102339953 7.4863320156466 11.251205254919
1561	3240958 155 83202 83912 375 379 5 2.9616570798467 5.4212786412706 21.007608278555 91.998696144668
1562	3241113 155 83202 83912 375 379 5 1.4062790882541 1.5952821860788 7.3691797879524 10.884925570248
1563	3241268 154 83202 83912 375 379 5 2.8233635283733 5.2886099142732 20.748185929964 90.21719369167
1564	3241422 122 83431 83912 376 379 4 2.6196318838577 7.1599100865488 19.603738786516 107.44341718599
1565	3241544 124 83431 83912 376 379 4 2.4593539303329 7.2264543793558 19.432114568929 107.14705239216
1566	3241668 93 83548 83912 377 379 3 27.619852509892 28.773547199601 84.013252219385 2353.629523784
1567	3241761 60 83548 83912 377 379 3 26.6 26.6 79.8 2122.68
1568	3241821 93 83548 83912 377 379 3 10021.199365575 10022.380740712 30065.960846999 301320668.1482
1569	3241914 60 83548 83912 377 379 3 23.4 23.4 70.2 1642.68
1570	3241974 92 83548 83912 377 379 3 1.455480670277 1.5647261890583 4.5402782026911 6.8774089171665
1571	3242066 92 83548 83912 377 379 3 2.8965387091195 4.112242902106 10.385710331391 36.704125760425
1572	3242158 93 83548 83912 377 379 3 1.5221138788154 1.6623747418402 4.7671004490228 7.5849806416786
1573	3242251 92 83548 83912 377 379 3 2.8527286591433 4.144342101232 10.684738308052 38.91252419693
1574	3242343 62 83795 83912 378 379 2 1.8814124045652 3.3259860838289 5.2073984883941 14.601896065875
1575	3242405 61 83795 83912 378 379 2 1.938525309918 3.5680579245244 5.5065832344424 16.488917729954
1576	3242466 31 83912 83912 379 379 1 1.4445736792637 1.4445736792637 1.4445736792637 2.0867931148215
1577	3242497 31 83912 83912 379 379 1 2.4317607351448 2.4317607351448 2.4317607351448 5.9134602729919
1578	3242528 31 83912 83912 379 379 1 1.6295326146064 1.6295326146064 1.6295326146064 2.6553765420661
1579	3242559 31 83912 83912 379 379 1 2.6875577210496 2.6875577210496 2.6875577210496 7.2229665039732

