version 2
run WithBeaconing-0-20200226-05:26:57-10873
attr configname WithBeaconing
attr datetime 20200226-05:26:57
attr experiment WithBeaconing
attr inifile omnetpp.ini
attr iterationvars ""
attr iterationvarsf ""
attr measurement ""
attr network RSUExampleScenario2
attr processid 10873
attr repetition 0
attr replication #0
attr resultdir results
attr runnumber 0
attr seedset 0
param *.rsu[*].appl.sendBeacons true
param *.node[*].appl.sendBeacons true
param *.playgroundSizeX 11000m
param *.playgroundSizeY 2000m
param *.playgroundSizeZ 50m
param *.annotations.draw true
param *.manager.updateInterval 1s
param *.manager.host "\"localhost\""
param *.manager.port 9999
param *.manager.autoShutdown true
param *.manager.launchConfig "xmldoc(\"myVeinsAPP.launchd.xml\")"
param *.rsu[0].mobility.x 2000
param *.rsu[0].mobility.y 50
param *.rsu[0].mobility.z 3
param *.rsu[*].applType "\"TraCIDemoRSU11p\""
param *.rsu[*].appl.headerLength "80 bit"
param *.rsu[*].appl.sendBeacons false
param *.rsu[*].appl.dataOnSch false
param *.rsu[*].appl.beaconInterval 1s
param *.rsu[*].appl.beaconUserPriority 7
param *.rsu[*].appl.dataUserPriority 5
param *.rsu[*].nic.phy80211p.antennaOffsetZ "0 m"
param *.connectionManager.sendDirect true
param *.connectionManager.maxInterfDist 300m
param *.connectionManager.drawMaxIntfDist false
param *.**.nic.mac1609_4.useServiceChannel false
param *.**.nic.mac1609_4.txPower 20mW
param *.**.nic.mac1609_4.bitrate 6Mbps
param *.**.nic.phy80211p.minPowerLevel -110dBm
param *.**.nic.phy80211p.useNoiseFloor true
param *.**.nic.phy80211p.noiseFloor -98dBm
param *.**.nic.phy80211p.decider "xmldoc(\"config2.xml\")"
param *.**.nic.phy80211p.analogueModels "xmldoc(\"config2.xml\")"
param *.**.nic.phy80211p.usePropagationDelay true
param *.**.nic.phy80211p.antenna "xmldoc(\"antenna.xml\", \"/root/Antenna[@id='monopole']\")"
param *.node[*].nic.phy80211p.antennaOffsetY "0 m"
param *.node[*].nic.phy80211p.antennaOffsetZ "1.895 m"
param *.node[*].applType "\"MyVeinsApp\""
param *.node[*].appl.headerLength "80 bit"
param *.node[*].appl.sendBeacons false
param *.node[*].appl.dataOnSch false
param *.node[*].appl.beaconInterval 1s
param *.node[*].veinsmobility.x 0
param *.node[*].veinsmobility.y 0
param *.node[*].veinsmobility.z 0
param *.node[*].veinsmobility.setHostSpeed true
param *.node[*0].veinsmobility.accidentCount 5
param *.node[*0].veinsmobility.accidentStart 73s
param *.node[*0].veinsmobility.accidentDuration 20s

scalar RSUExampleScenario2.node[0].appl generatedWSMs 0
scalar RSUExampleScenario2.node[0].appl receivedWSMs 0
scalar RSUExampleScenario2.node[0].appl generatedBSMs 3
scalar RSUExampleScenario2.node[0].appl receivedBSMs 61
scalar RSUExampleScenario2.node[0].appl generatedWSAs 0
scalar RSUExampleScenario2.node[0].appl receivedWSAs 0
scalar RSUExampleScenario2.node[0].nic.phy80211p busyTime 8.1228529892803e-05
scalar RSUExampleScenario2.node[0].nic.mac1609_4 ReceivedUnicastPackets 0
scalar RSUExampleScenario2.node[0].nic.mac1609_4 ReceivedBroadcasts 61
scalar RSUExampleScenario2.node[0].nic.mac1609_4 SentPackets 3
scalar RSUExampleScenario2.node[0].nic.mac1609_4 SentAcknowledgements 0
scalar RSUExampleScenario2.node[0].nic.mac1609_4 SNIRLostPackets 0
scalar RSUExampleScenario2.node[0].nic.mac1609_4 RXTXLostPackets 0
scalar RSUExampleScenario2.node[0].nic.mac1609_4 TotalLostPackets 0
scalar RSUExampleScenario2.node[0].nic.mac1609_4 DroppedPacketsInMac 0
scalar RSUExampleScenario2.node[0].nic.mac1609_4 TooLittleTime 0
scalar RSUExampleScenario2.node[0].nic.mac1609_4 TimesIntoBackoff 3
scalar RSUExampleScenario2.node[0].nic.mac1609_4 SlotsBackoff 8
scalar RSUExampleScenario2.node[0].nic.mac1609_4 NumInternalContention 0
scalar RSUExampleScenario2.node[0].nic.mac1609_4 totalBusyTime 0.006659
scalar RSUExampleScenario2.node[0].veinsmobility startTime 301
scalar RSUExampleScenario2.node[0].veinsmobility totalTime 78
scalar RSUExampleScenario2.node[0].veinsmobility stopTime 379.10063789622
scalar RSUExampleScenario2.node[0].veinsmobility minSpeed 0
scalar RSUExampleScenario2.node[0].veinsmobility maxSpeed 19.999648194225
scalar RSUExampleScenario2.node[0].veinsmobility totalDistance 1465.9580935009
scalar RSUExampleScenario2.node[0].veinsmobility totalCO2Emission 205.06233647517
scalar RSUExampleScenario2.node[1].appl generatedWSMs 0
scalar RSUExampleScenario2.node[1].appl receivedWSMs 0
scalar RSUExampleScenario2.node[1].appl generatedBSMs 3
scalar RSUExampleScenario2.node[1].appl receivedBSMs 60
scalar RSUExampleScenario2.node[1].appl generatedWSAs 0
scalar RSUExampleScenario2.node[1].appl receivedWSAs 0
scalar RSUExampleScenario2.node[1].nic.phy80211p busyTime 7.9896914648659e-05
scalar RSUExampleScenario2.node[1].nic.mac1609_4 ReceivedUnicastPackets 0
scalar RSUExampleScenario2.node[1].nic.mac1609_4 ReceivedBroadcasts 60
scalar RSUExampleScenario2.node[1].nic.mac1609_4 SentPackets 3
scalar RSUExampleScenario2.node[1].nic.mac1609_4 SentAcknowledgements 0
scalar RSUExampleScenario2.node[1].nic.mac1609_4 SNIRLostPackets 0
scalar RSUExampleScenario2.node[1].nic.mac1609_4 RXTXLostPackets 0
scalar RSUExampleScenario2.node[1].nic.mac1609_4 TotalLostPackets 0
scalar RSUExampleScenario2.node[1].nic.mac1609_4 DroppedPacketsInMac 0
scalar RSUExampleScenario2.node[1].nic.mac1609_4 TooLittleTime 0
scalar RSUExampleScenario2.node[1].nic.mac1609_4 TimesIntoBackoff 3
scalar RSUExampleScenario2.node[1].nic.mac1609_4 SlotsBackoff 4
scalar RSUExampleScenario2.node[1].nic.mac1609_4 NumInternalContention 0
scalar RSUExampleScenario2.node[1].nic.mac1609_4 totalBusyTime 0.006555
scalar RSUExampleScenario2.node[1].veinsmobility startTime 301
scalar RSUExampleScenario2.node[1].veinsmobility totalTime 78
scalar RSUExampleScenario2.node[1].veinsmobility stopTime 379.10063789622
scalar RSUExampleScenario2.node[1].veinsmobility minSpeed 14.834583519928
scalar RSUExampleScenario2.node[1].veinsmobility maxSpeed 19.999137644819
scalar RSUExampleScenario2.node[1].veinsmobility totalDistance 1540.94989432
scalar RSUExampleScenario2.node[1].veinsmobility totalCO2Emission 230.23230459629
scalar RSUExampleScenario2.node[2].appl generatedWSMs 0
scalar RSUExampleScenario2.node[2].appl receivedWSMs 0
scalar RSUExampleScenario2.node[2].appl generatedBSMs 3
scalar RSUExampleScenario2.node[2].appl receivedBSMs 69
scalar RSUExampleScenario2.node[2].appl generatedWSAs 0
scalar RSUExampleScenario2.node[2].appl receivedWSAs 0
scalar RSUExampleScenario2.node[2].nic.phy80211p busyTime 9.1881451845957e-05
scalar RSUExampleScenario2.node[2].nic.mac1609_4 ReceivedUnicastPackets 0
scalar RSUExampleScenario2.node[2].nic.mac1609_4 ReceivedBroadcasts 69
scalar RSUExampleScenario2.node[2].nic.mac1609_4 SentPackets 3
scalar RSUExampleScenario2.node[2].nic.mac1609_4 SentAcknowledgements 0
scalar RSUExampleScenario2.node[2].nic.mac1609_4 SNIRLostPackets 0
scalar RSUExampleScenario2.node[2].nic.mac1609_4 RXTXLostPackets 0
scalar RSUExampleScenario2.node[2].nic.mac1609_4 TotalLostPackets 0
scalar RSUExampleScenario2.node[2].nic.mac1609_4 DroppedPacketsInMac 0
scalar RSUExampleScenario2.node[2].nic.mac1609_4 TooLittleTime 0
scalar RSUExampleScenario2.node[2].nic.mac1609_4 TimesIntoBackoff 3
scalar RSUExampleScenario2.node[2].nic.mac1609_4 SlotsBackoff 7
scalar RSUExampleScenario2.node[2].nic.mac1609_4 NumInternalContention 0
scalar RSUExampleScenario2.node[2].nic.mac1609_4 totalBusyTime 0.007491
scalar RSUExampleScenario2.node[2].veinsmobility startTime 301
scalar RSUExampleScenario2.node[2].veinsmobility totalTime 78
scalar RSUExampleScenario2.node[2].veinsmobility stopTime 379.10063789622
scalar RSUExampleScenario2.node[2].veinsmobility minSpeed 19.082340863005
scalar RSUExampleScenario2.node[2].veinsmobility maxSpeed 19.999618077767
scalar RSUExampleScenario2.node[2].veinsmobility totalDistance 1552.387759186
scalar RSUExampleScenario2.node[2].veinsmobility totalCO2Emission 215.8912251861
scalar RSUExampleScenario2.node[3].appl generatedWSMs 0
scalar RSUExampleScenario2.node[3].appl receivedWSMs 0
scalar RSUExampleScenario2.node[3].appl generatedBSMs 3
scalar RSUExampleScenario2.node[3].appl receivedBSMs 36
scalar RSUExampleScenario2.node[3].appl generatedWSAs 0
scalar RSUExampleScenario2.node[3].appl receivedWSAs 0
scalar RSUExampleScenario2.node[3].nic.phy80211p busyTime 4.7938148789195e-05
scalar RSUExampleScenario2.node[3].nic.mac1609_4 ReceivedUnicastPackets 0
scalar RSUExampleScenario2.node[3].nic.mac1609_4 ReceivedBroadcasts 36
scalar RSUExampleScenario2.node[3].nic.mac1609_4 SentPackets 3
scalar RSUExampleScenario2.node[3].nic.mac1609_4 SentAcknowledgements 0
scalar RSUExampleScenario2.node[3].nic.mac1609_4 SNIRLostPackets 0
scalar RSUExampleScenario2.node[3].nic.mac1609_4 RXTXLostPackets 0
scalar RSUExampleScenario2.node[3].nic.mac1609_4 TotalLostPackets 0
scalar RSUExampleScenario2.node[3].nic.mac1609_4 DroppedPacketsInMac 0
scalar RSUExampleScenario2.node[3].nic.mac1609_4 TooLittleTime 0
scalar RSUExampleScenario2.node[3].nic.mac1609_4 TimesIntoBackoff 3
scalar RSUExampleScenario2.node[3].nic.mac1609_4 SlotsBackoff 2
scalar RSUExampleScenario2.node[3].nic.mac1609_4 NumInternalContention 0
scalar RSUExampleScenario2.node[3].nic.mac1609_4 totalBusyTime 0.004059
scalar RSUExampleScenario2.node[3].veinsmobility startTime 301
scalar RSUExampleScenario2.node[3].veinsmobility totalTime 78
scalar RSUExampleScenario2.node[3].veinsmobility stopTime 379.10063789622
scalar RSUExampleScenario2.node[3].veinsmobility minSpeed 18.859072566169
scalar RSUExampleScenario2.node[3].veinsmobility maxSpeed 19.931819445347
scalar RSUExampleScenario2.node[3].veinsmobility totalDistance 1546.8192742702
scalar RSUExampleScenario2.node[3].veinsmobility totalCO2Emission 214.82441740576
scalar RSUExampleScenario2.node[4].appl generatedWSMs 0
scalar RSUExampleScenario2.node[4].appl receivedWSMs 0
scalar RSUExampleScenario2.node[4].appl generatedBSMs 3
scalar RSUExampleScenario2.node[4].appl receivedBSMs 30
scalar RSUExampleScenario2.node[4].appl generatedWSAs 0
scalar RSUExampleScenario2.node[4].appl receivedWSAs 0
scalar RSUExampleScenario2.node[4].nic.phy80211p busyTime 3.9948457324329e-05
scalar RSUExampleScenario2.node[4].nic.mac1609_4 ReceivedUnicastPackets 0
scalar RSUExampleScenario2.node[4].nic.mac1609_4 ReceivedBroadcasts 30
scalar RSUExampleScenario2.node[4].nic.mac1609_4 SentPackets 3
scalar RSUExampleScenario2.node[4].nic.mac1609_4 SentAcknowledgements 0
scalar RSUExampleScenario2.node[4].nic.mac1609_4 SNIRLostPackets 0
scalar RSUExampleScenario2.node[4].nic.mac1609_4 RXTXLostPackets 0
scalar RSUExampleScenario2.node[4].nic.mac1609_4 TotalLostPackets 0
scalar RSUExampleScenario2.node[4].nic.mac1609_4 DroppedPacketsInMac 0
scalar RSUExampleScenario2.node[4].nic.mac1609_4 TooLittleTime 0
scalar RSUExampleScenario2.node[4].nic.mac1609_4 TimesIntoBackoff 3
scalar RSUExampleScenario2.node[4].nic.mac1609_4 SlotsBackoff 8
scalar RSUExampleScenario2.node[4].nic.mac1609_4 NumInternalContention 0
scalar RSUExampleScenario2.node[4].nic.mac1609_4 totalBusyTime 0.003435
scalar RSUExampleScenario2.node[4].veinsmobility startTime 301
scalar RSUExampleScenario2.node[4].veinsmobility totalTime 78
scalar RSUExampleScenario2.node[4].veinsmobility stopTime 379.10063789622
scalar RSUExampleScenario2.node[4].veinsmobility minSpeed 18.980234263583
scalar RSUExampleScenario2.node[4].veinsmobility maxSpeed 19.996182353538
scalar RSUExampleScenario2.node[4].veinsmobility totalDistance 1552.588616874
scalar RSUExampleScenario2.node[4].veinsmobility totalCO2Emission 215.3767701919
scalar RSUExampleScenario2.node[5].appl generatedWSMs 0
scalar RSUExampleScenario2.node[5].appl receivedWSMs 0
scalar RSUExampleScenario2.node[5].appl generatedBSMs 3
scalar RSUExampleScenario2.node[5].appl receivedBSMs 33
scalar RSUExampleScenario2.node[5].appl generatedWSAs 0
scalar RSUExampleScenario2.node[5].appl receivedWSAs 0
scalar RSUExampleScenario2.node[5].nic.phy80211p busyTime 4.3943303056762e-05
scalar RSUExampleScenario2.node[5].nic.mac1609_4 ReceivedUnicastPackets 0
scalar RSUExampleScenario2.node[5].nic.mac1609_4 ReceivedBroadcasts 33
scalar RSUExampleScenario2.node[5].nic.mac1609_4 SentPackets 3
scalar RSUExampleScenario2.node[5].nic.mac1609_4 SentAcknowledgements 0
scalar RSUExampleScenario2.node[5].nic.mac1609_4 SNIRLostPackets 0
scalar RSUExampleScenario2.node[5].nic.mac1609_4 RXTXLostPackets 0
scalar RSUExampleScenario2.node[5].nic.mac1609_4 TotalLostPackets 0
scalar RSUExampleScenario2.node[5].nic.mac1609_4 DroppedPacketsInMac 0
scalar RSUExampleScenario2.node[5].nic.mac1609_4 TooLittleTime 0
scalar RSUExampleScenario2.node[5].nic.mac1609_4 TimesIntoBackoff 3
scalar RSUExampleScenario2.node[5].nic.mac1609_4 SlotsBackoff 6
scalar RSUExampleScenario2.node[5].nic.mac1609_4 NumInternalContention 0
scalar RSUExampleScenario2.node[5].nic.mac1609_4 totalBusyTime 0.003747
scalar RSUExampleScenario2.node[5].veinsmobility startTime 301
scalar RSUExampleScenario2.node[5].veinsmobility totalTime 78
scalar RSUExampleScenario2.node[5].veinsmobility stopTime 379.10063789622
scalar RSUExampleScenario2.node[5].veinsmobility minSpeed 19.080330665804
scalar RSUExampleScenario2.node[5].veinsmobility maxSpeed 19.997485905327
scalar RSUExampleScenario2.node[5].veinsmobility totalDistance 1552.1887079737
scalar RSUExampleScenario2.node[5].veinsmobility totalCO2Emission 215.55112870513
scalar RSUExampleScenario2.node[6].appl generatedWSMs 0
scalar RSUExampleScenario2.node[6].appl receivedWSMs 0
scalar RSUExampleScenario2.node[6].appl generatedBSMs 3
scalar RSUExampleScenario2.node[6].appl receivedBSMs 39
scalar RSUExampleScenario2.node[6].appl generatedWSAs 0
scalar RSUExampleScenario2.node[6].appl receivedWSAs 0
scalar RSUExampleScenario2.node[6].nic.phy80211p busyTime 5.1932994521628e-05
scalar RSUExampleScenario2.node[6].nic.mac1609_4 ReceivedUnicastPackets 0
scalar RSUExampleScenario2.node[6].nic.mac1609_4 ReceivedBroadcasts 39
scalar RSUExampleScenario2.node[6].nic.mac1609_4 SentPackets 3
scalar RSUExampleScenario2.node[6].nic.mac1609_4 SentAcknowledgements 0
scalar RSUExampleScenario2.node[6].nic.mac1609_4 SNIRLostPackets 0
scalar RSUExampleScenario2.node[6].nic.mac1609_4 RXTXLostPackets 0
scalar RSUExampleScenario2.node[6].nic.mac1609_4 TotalLostPackets 0
scalar RSUExampleScenario2.node[6].nic.mac1609_4 DroppedPacketsInMac 0
scalar RSUExampleScenario2.node[6].nic.mac1609_4 TooLittleTime 0
scalar RSUExampleScenario2.node[6].nic.mac1609_4 TimesIntoBackoff 3
scalar RSUExampleScenario2.node[6].nic.mac1609_4 SlotsBackoff 4
scalar RSUExampleScenario2.node[6].nic.mac1609_4 NumInternalContention 0
scalar RSUExampleScenario2.node[6].nic.mac1609_4 totalBusyTime 0.004371
scalar RSUExampleScenario2.node[6].veinsmobility startTime 301
scalar RSUExampleScenario2.node[6].veinsmobility totalTime 78
scalar RSUExampleScenario2.node[6].veinsmobility stopTime 379.10063789622
scalar RSUExampleScenario2.node[6].veinsmobility minSpeed 19.900522485282
scalar RSUExampleScenario2.node[6].veinsmobility maxSpeed 19.999495517113
scalar RSUExampleScenario2.node[6].veinsmobility totalDistance 1556.2038073892
scalar RSUExampleScenario2.node[6].veinsmobility totalCO2Emission 215.90950554659
scalar RSUExampleScenario2.node[7].appl generatedWSMs 0
scalar RSUExampleScenario2.node[7].appl receivedWSMs 0
scalar RSUExampleScenario2.node[7].appl generatedBSMs 3
scalar RSUExampleScenario2.node[7].appl receivedBSMs 39
scalar RSUExampleScenario2.node[7].appl generatedWSAs 0
scalar RSUExampleScenario2.node[7].appl receivedWSAs 0
scalar RSUExampleScenario2.node[7].nic.phy80211p busyTime 5.1932994521628e-05
scalar RSUExampleScenario2.node[7].nic.mac1609_4 ReceivedUnicastPackets 0
scalar RSUExampleScenario2.node[7].nic.mac1609_4 ReceivedBroadcasts 39
scalar RSUExampleScenario2.node[7].nic.mac1609_4 SentPackets 3
scalar RSUExampleScenario2.node[7].nic.mac1609_4 SentAcknowledgements 0
scalar RSUExampleScenario2.node[7].nic.mac1609_4 SNIRLostPackets 0
scalar RSUExampleScenario2.node[7].nic.mac1609_4 RXTXLostPackets 0
scalar RSUExampleScenario2.node[7].nic.mac1609_4 TotalLostPackets 0
scalar RSUExampleScenario2.node[7].nic.mac1609_4 DroppedPacketsInMac 0
scalar RSUExampleScenario2.node[7].nic.mac1609_4 TooLittleTime 0
scalar RSUExampleScenario2.node[7].nic.mac1609_4 TimesIntoBackoff 3
scalar RSUExampleScenario2.node[7].nic.mac1609_4 SlotsBackoff 5
scalar RSUExampleScenario2.node[7].nic.mac1609_4 NumInternalContention 0
scalar RSUExampleScenario2.node[7].nic.mac1609_4 totalBusyTime 0.004371
scalar RSUExampleScenario2.node[7].veinsmobility startTime 301
scalar RSUExampleScenario2.node[7].veinsmobility totalTime 78
scalar RSUExampleScenario2.node[7].veinsmobility stopTime 379.10063789622
scalar RSUExampleScenario2.node[7].veinsmobility minSpeed 16.344443388014
scalar RSUExampleScenario2.node[7].veinsmobility maxSpeed 17.984855421464
scalar RSUExampleScenario2.node[7].veinsmobility totalDistance 1395.2593521797
scalar RSUExampleScenario2.node[7].veinsmobility totalCO2Emission 194.78264945973
scalar RSUExampleScenario2.node[8].appl generatedWSMs 0
scalar RSUExampleScenario2.node[8].appl receivedWSMs 0
scalar RSUExampleScenario2.node[8].appl generatedBSMs 3
scalar RSUExampleScenario2.node[8].appl receivedBSMs 39
scalar RSUExampleScenario2.node[8].appl generatedWSAs 0
scalar RSUExampleScenario2.node[8].appl receivedWSAs 0
scalar RSUExampleScenario2.node[8].nic.phy80211p busyTime 5.1932994521628e-05
scalar RSUExampleScenario2.node[8].nic.mac1609_4 ReceivedUnicastPackets 0
scalar RSUExampleScenario2.node[8].nic.mac1609_4 ReceivedBroadcasts 39
scalar RSUExampleScenario2.node[8].nic.mac1609_4 SentPackets 3
scalar RSUExampleScenario2.node[8].nic.mac1609_4 SentAcknowledgements 0
scalar RSUExampleScenario2.node[8].nic.mac1609_4 SNIRLostPackets 0
scalar RSUExampleScenario2.node[8].nic.mac1609_4 RXTXLostPackets 0
scalar RSUExampleScenario2.node[8].nic.mac1609_4 TotalLostPackets 0
scalar RSUExampleScenario2.node[8].nic.mac1609_4 DroppedPacketsInMac 0
scalar RSUExampleScenario2.node[8].nic.mac1609_4 TooLittleTime 0
scalar RSUExampleScenario2.node[8].nic.mac1609_4 TimesIntoBackoff 3
scalar RSUExampleScenario2.node[8].nic.mac1609_4 SlotsBackoff 5
scalar RSUExampleScenario2.node[8].nic.mac1609_4 NumInternalContention 0
scalar RSUExampleScenario2.node[8].nic.mac1609_4 totalBusyTime 0.004371
scalar RSUExampleScenario2.node[8].veinsmobility startTime 301
scalar RSUExampleScenario2.node[8].veinsmobility totalTime 78
scalar RSUExampleScenario2.node[8].veinsmobility stopTime 379.10063789622
scalar RSUExampleScenario2.node[8].veinsmobility minSpeed 19.249174163703
scalar RSUExampleScenario2.node[8].veinsmobility maxSpeed 19.346395869579
scalar RSUExampleScenario2.node[8].veinsmobility totalDistance 1505.5225598857
scalar RSUExampleScenario2.node[8].veinsmobility totalCO2Emission 208.08783561336
scalar RSUExampleScenario2.node[9].appl generatedWSMs 0
scalar RSUExampleScenario2.node[9].appl receivedWSMs 0
scalar RSUExampleScenario2.node[9].appl generatedBSMs 3
scalar RSUExampleScenario2.node[9].appl receivedBSMs 36
scalar RSUExampleScenario2.node[9].appl generatedWSAs 0
scalar RSUExampleScenario2.node[9].appl receivedWSAs 0
scalar RSUExampleScenario2.node[9].nic.phy80211p busyTime 4.7938148789195e-05
scalar RSUExampleScenario2.node[9].nic.mac1609_4 ReceivedUnicastPackets 0
scalar RSUExampleScenario2.node[9].nic.mac1609_4 ReceivedBroadcasts 36
scalar RSUExampleScenario2.node[9].nic.mac1609_4 SentPackets 3
scalar RSUExampleScenario2.node[9].nic.mac1609_4 SentAcknowledgements 0
scalar RSUExampleScenario2.node[9].nic.mac1609_4 SNIRLostPackets 0
scalar RSUExampleScenario2.node[9].nic.mac1609_4 RXTXLostPackets 0
scalar RSUExampleScenario2.node[9].nic.mac1609_4 TotalLostPackets 0
scalar RSUExampleScenario2.node[9].nic.mac1609_4 DroppedPacketsInMac 0
scalar RSUExampleScenario2.node[9].nic.mac1609_4 TooLittleTime 0
scalar RSUExampleScenario2.node[9].nic.mac1609_4 TimesIntoBackoff 3
scalar RSUExampleScenario2.node[9].nic.mac1609_4 SlotsBackoff 8
scalar RSUExampleScenario2.node[9].nic.mac1609_4 NumInternalContention 0
scalar RSUExampleScenario2.node[9].nic.mac1609_4 totalBusyTime 0.004059
scalar RSUExampleScenario2.node[9].veinsmobility startTime 301
scalar RSUExampleScenario2.node[9].veinsmobility totalTime 78
scalar RSUExampleScenario2.node[9].veinsmobility stopTime 379.10063789622
scalar RSUExampleScenario2.node[9].veinsmobility minSpeed 15.530923838359
scalar RSUExampleScenario2.node[9].veinsmobility maxSpeed 17.897375879145
scalar RSUExampleScenario2.node[9].veinsmobility totalDistance 1377.4605929226
scalar RSUExampleScenario2.node[9].veinsmobility totalCO2Emission 190.86632565355
scalar RSUExampleScenario2.node[10].appl generatedWSMs 0
scalar RSUExampleScenario2.node[10].appl receivedWSMs 0
scalar RSUExampleScenario2.node[10].appl generatedBSMs 3
scalar RSUExampleScenario2.node[10].appl receivedBSMs 39
scalar RSUExampleScenario2.node[10].appl generatedWSAs 0
scalar RSUExampleScenario2.node[10].appl receivedWSAs 0
scalar RSUExampleScenario2.node[10].nic.phy80211p busyTime 5.1932994521628e-05
scalar RSUExampleScenario2.node[10].nic.mac1609_4 ReceivedUnicastPackets 0
scalar RSUExampleScenario2.node[10].nic.mac1609_4 ReceivedBroadcasts 39
scalar RSUExampleScenario2.node[10].nic.mac1609_4 SentPackets 3
scalar RSUExampleScenario2.node[10].nic.mac1609_4 SentAcknowledgements 0
scalar RSUExampleScenario2.node[10].nic.mac1609_4 SNIRLostPackets 0
scalar RSUExampleScenario2.node[10].nic.mac1609_4 RXTXLostPackets 0
scalar RSUExampleScenario2.node[10].nic.mac1609_4 TotalLostPackets 0
scalar RSUExampleScenario2.node[10].nic.mac1609_4 DroppedPacketsInMac 0
scalar RSUExampleScenario2.node[10].nic.mac1609_4 TooLittleTime 0
scalar RSUExampleScenario2.node[10].nic.mac1609_4 TimesIntoBackoff 3
scalar RSUExampleScenario2.node[10].nic.mac1609_4 SlotsBackoff 4
scalar RSUExampleScenario2.node[10].nic.mac1609_4 NumInternalContention 0
scalar RSUExampleScenario2.node[10].nic.mac1609_4 totalBusyTime 0.004371
scalar RSUExampleScenario2.node[10].veinsmobility startTime 301
scalar RSUExampleScenario2.node[10].veinsmobility totalTime 78
scalar RSUExampleScenario2.node[10].veinsmobility stopTime 379.10063789622
scalar RSUExampleScenario2.node[10].veinsmobility minSpeed 0
scalar RSUExampleScenario2.node[10].veinsmobility maxSpeed 18.518681550887
scalar RSUExampleScenario2.node[10].veinsmobility totalDistance 1358.5309679653
scalar RSUExampleScenario2.node[10].veinsmobility totalCO2Emission 189.18696566862
scalar RSUExampleScenario2.node[11].appl generatedWSMs 0
scalar RSUExampleScenario2.node[11].appl receivedWSMs 0
scalar RSUExampleScenario2.node[11].appl generatedBSMs 3
scalar RSUExampleScenario2.node[11].appl receivedBSMs 36
scalar RSUExampleScenario2.node[11].appl generatedWSAs 0
scalar RSUExampleScenario2.node[11].appl receivedWSAs 0
scalar RSUExampleScenario2.node[11].nic.phy80211p busyTime 4.7938148789195e-05
scalar RSUExampleScenario2.node[11].nic.mac1609_4 ReceivedUnicastPackets 0
scalar RSUExampleScenario2.node[11].nic.mac1609_4 ReceivedBroadcasts 36
scalar RSUExampleScenario2.node[11].nic.mac1609_4 SentPackets 3
scalar RSUExampleScenario2.node[11].nic.mac1609_4 SentAcknowledgements 0
scalar RSUExampleScenario2.node[11].nic.mac1609_4 SNIRLostPackets 0
scalar RSUExampleScenario2.node[11].nic.mac1609_4 RXTXLostPackets 0
scalar RSUExampleScenario2.node[11].nic.mac1609_4 TotalLostPackets 0
scalar RSUExampleScenario2.node[11].nic.mac1609_4 DroppedPacketsInMac 0
scalar RSUExampleScenario2.node[11].nic.mac1609_4 TooLittleTime 0
scalar RSUExampleScenario2.node[11].nic.mac1609_4 TimesIntoBackoff 3
scalar RSUExampleScenario2.node[11].nic.mac1609_4 SlotsBackoff 4
scalar RSUExampleScenario2.node[11].nic.mac1609_4 NumInternalContention 0
scalar RSUExampleScenario2.node[11].nic.mac1609_4 totalBusyTime 0.004059
scalar RSUExampleScenario2.node[11].veinsmobility startTime 301
scalar RSUExampleScenario2.node[11].veinsmobility totalTime 78
scalar RSUExampleScenario2.node[11].veinsmobility stopTime 379.10063789622
scalar RSUExampleScenario2.node[11].veinsmobility minSpeed 1.7662802816663
scalar RSUExampleScenario2.node[11].veinsmobility maxSpeed 18.551637035788
scalar RSUExampleScenario2.node[11].veinsmobility totalDistance 1375.2703558785
scalar RSUExampleScenario2.node[11].veinsmobility totalCO2Emission 191.0926166993
scalar RSUExampleScenario2.node[12].appl generatedWSMs 0
scalar RSUExampleScenario2.node[12].appl receivedWSMs 0
scalar RSUExampleScenario2.node[12].appl generatedBSMs 3
scalar RSUExampleScenario2.node[12].appl receivedBSMs 39
scalar RSUExampleScenario2.node[12].appl generatedWSAs 0
scalar RSUExampleScenario2.node[12].appl receivedWSAs 0
scalar RSUExampleScenario2.node[12].nic.phy80211p busyTime 5.1932994521628e-05
scalar RSUExampleScenario2.node[12].nic.mac1609_4 ReceivedUnicastPackets 0
scalar RSUExampleScenario2.node[12].nic.mac1609_4 ReceivedBroadcasts 39
scalar RSUExampleScenario2.node[12].nic.mac1609_4 SentPackets 3
scalar RSUExampleScenario2.node[12].nic.mac1609_4 SentAcknowledgements 0
scalar RSUExampleScenario2.node[12].nic.mac1609_4 SNIRLostPackets 0
scalar RSUExampleScenario2.node[12].nic.mac1609_4 RXTXLostPackets 0
scalar RSUExampleScenario2.node[12].nic.mac1609_4 TotalLostPackets 0
scalar RSUExampleScenario2.node[12].nic.mac1609_4 DroppedPacketsInMac 0
scalar RSUExampleScenario2.node[12].nic.mac1609_4 TooLittleTime 0
scalar RSUExampleScenario2.node[12].nic.mac1609_4 TimesIntoBackoff 3
scalar RSUExampleScenario2.node[12].nic.mac1609_4 SlotsBackoff 5
scalar RSUExampleScenario2.node[12].nic.mac1609_4 NumInternalContention 0
scalar RSUExampleScenario2.node[12].nic.mac1609_4 totalBusyTime 0.004371
scalar RSUExampleScenario2.node[12].veinsmobility startTime 301
scalar RSUExampleScenario2.node[12].veinsmobility totalTime 78
scalar RSUExampleScenario2.node[12].veinsmobility stopTime 379.10063789622
scalar RSUExampleScenario2.node[12].veinsmobility minSpeed 15.874469986868
scalar RSUExampleScenario2.node[12].veinsmobility maxSpeed 18.822356016697
scalar RSUExampleScenario2.node[12].veinsmobility totalDistance 1428.6222080822
scalar RSUExampleScenario2.node[12].veinsmobility totalCO2Emission 193.30095195983
scalar RSUExampleScenario2.node[13].appl generatedWSMs 0
scalar RSUExampleScenario2.node[13].appl receivedWSMs 0
scalar RSUExampleScenario2.node[13].appl generatedBSMs 3
scalar RSUExampleScenario2.node[13].appl receivedBSMs 65
scalar RSUExampleScenario2.node[13].appl generatedWSAs 0
scalar RSUExampleScenario2.node[13].appl receivedWSAs 0
scalar RSUExampleScenario2.node[13].nic.phy80211p busyTime 8.655499086938e-05
scalar RSUExampleScenario2.node[13].nic.mac1609_4 ReceivedUnicastPackets 0
scalar RSUExampleScenario2.node[13].nic.mac1609_4 ReceivedBroadcasts 65
scalar RSUExampleScenario2.node[13].nic.mac1609_4 SentPackets 3
scalar RSUExampleScenario2.node[13].nic.mac1609_4 SentAcknowledgements 0
scalar RSUExampleScenario2.node[13].nic.mac1609_4 SNIRLostPackets 0
scalar RSUExampleScenario2.node[13].nic.mac1609_4 RXTXLostPackets 0
scalar RSUExampleScenario2.node[13].nic.mac1609_4 TotalLostPackets 0
scalar RSUExampleScenario2.node[13].nic.mac1609_4 DroppedPacketsInMac 0
scalar RSUExampleScenario2.node[13].nic.mac1609_4 TooLittleTime 0
scalar RSUExampleScenario2.node[13].nic.mac1609_4 TimesIntoBackoff 3
scalar RSUExampleScenario2.node[13].nic.mac1609_4 SlotsBackoff 5
scalar RSUExampleScenario2.node[13].nic.mac1609_4 NumInternalContention 0
scalar RSUExampleScenario2.node[13].nic.mac1609_4 totalBusyTime 0.007075
scalar RSUExampleScenario2.node[13].veinsmobility startTime 301
scalar RSUExampleScenario2.node[13].veinsmobility totalTime 78
scalar RSUExampleScenario2.node[13].veinsmobility stopTime 379.10063789622
scalar RSUExampleScenario2.node[13].veinsmobility minSpeed 19.05488610557
scalar RSUExampleScenario2.node[13].veinsmobility maxSpeed 19.993181670224
scalar RSUExampleScenario2.node[13].veinsmobility totalDistance 1552.1504456126
scalar RSUExampleScenario2.node[13].veinsmobility totalCO2Emission 215.26773757964
scalar RSUExampleScenario2.node[14].appl generatedWSMs 0
scalar RSUExampleScenario2.node[14].appl receivedWSMs 0
scalar RSUExampleScenario2.node[14].appl generatedBSMs 3
scalar RSUExampleScenario2.node[14].appl receivedBSMs 36
scalar RSUExampleScenario2.node[14].appl generatedWSAs 0
scalar RSUExampleScenario2.node[14].appl receivedWSAs 0
scalar RSUExampleScenario2.node[14].nic.phy80211p busyTime 4.7938148789195e-05
scalar RSUExampleScenario2.node[14].nic.mac1609_4 ReceivedUnicastPackets 0
scalar RSUExampleScenario2.node[14].nic.mac1609_4 ReceivedBroadcasts 36
scalar RSUExampleScenario2.node[14].nic.mac1609_4 SentPackets 3
scalar RSUExampleScenario2.node[14].nic.mac1609_4 SentAcknowledgements 0
scalar RSUExampleScenario2.node[14].nic.mac1609_4 SNIRLostPackets 0
scalar RSUExampleScenario2.node[14].nic.mac1609_4 RXTXLostPackets 0
scalar RSUExampleScenario2.node[14].nic.mac1609_4 TotalLostPackets 0
scalar RSUExampleScenario2.node[14].nic.mac1609_4 DroppedPacketsInMac 0
scalar RSUExampleScenario2.node[14].nic.mac1609_4 TooLittleTime 0
scalar RSUExampleScenario2.node[14].nic.mac1609_4 TimesIntoBackoff 3
scalar RSUExampleScenario2.node[14].nic.mac1609_4 SlotsBackoff 3
scalar RSUExampleScenario2.node[14].nic.mac1609_4 NumInternalContention 0
scalar RSUExampleScenario2.node[14].nic.mac1609_4 totalBusyTime 0.004059
scalar RSUExampleScenario2.node[14].veinsmobility startTime 301
scalar RSUExampleScenario2.node[14].veinsmobility totalTime 78
scalar RSUExampleScenario2.node[14].veinsmobility stopTime 379.10063789622
scalar RSUExampleScenario2.node[14].veinsmobility minSpeed 3.9945624503181
scalar RSUExampleScenario2.node[14].veinsmobility maxSpeed 19.997050620872
scalar RSUExampleScenario2.node[14].veinsmobility totalDistance 1439.4694965701
scalar RSUExampleScenario2.node[14].veinsmobility totalCO2Emission 190.32167365534
scalar RSUExampleScenario2.node[15].appl generatedWSMs 0
scalar RSUExampleScenario2.node[15].appl receivedWSMs 0
scalar RSUExampleScenario2.node[15].appl generatedBSMs 3
scalar RSUExampleScenario2.node[15].appl receivedBSMs 37
scalar RSUExampleScenario2.node[15].appl generatedWSAs 0
scalar RSUExampleScenario2.node[15].appl receivedWSAs 0
scalar RSUExampleScenario2.node[15].nic.phy80211p busyTime 4.9269764033339e-05
scalar RSUExampleScenario2.node[15].nic.mac1609_4 ReceivedUnicastPackets 0
scalar RSUExampleScenario2.node[15].nic.mac1609_4 ReceivedBroadcasts 37
scalar RSUExampleScenario2.node[15].nic.mac1609_4 SentPackets 3
scalar RSUExampleScenario2.node[15].nic.mac1609_4 SentAcknowledgements 0
scalar RSUExampleScenario2.node[15].nic.mac1609_4 SNIRLostPackets 0
scalar RSUExampleScenario2.node[15].nic.mac1609_4 RXTXLostPackets 0
scalar RSUExampleScenario2.node[15].nic.mac1609_4 TotalLostPackets 0
scalar RSUExampleScenario2.node[15].nic.mac1609_4 DroppedPacketsInMac 0
scalar RSUExampleScenario2.node[15].nic.mac1609_4 TooLittleTime 0
scalar RSUExampleScenario2.node[15].nic.mac1609_4 TimesIntoBackoff 3
scalar RSUExampleScenario2.node[15].nic.mac1609_4 SlotsBackoff 4
scalar RSUExampleScenario2.node[15].nic.mac1609_4 NumInternalContention 0
scalar RSUExampleScenario2.node[15].nic.mac1609_4 totalBusyTime 0.004163
scalar RSUExampleScenario2.node[15].veinsmobility startTime 301
scalar RSUExampleScenario2.node[15].veinsmobility totalTime 78
scalar RSUExampleScenario2.node[15].veinsmobility stopTime 379.10063789622
scalar RSUExampleScenario2.node[15].veinsmobility minSpeed 5.8867141595156
scalar RSUExampleScenario2.node[15].veinsmobility maxSpeed 19.999520536209
scalar RSUExampleScenario2.node[15].veinsmobility totalDistance 1479.5118902705
scalar RSUExampleScenario2.node[15].veinsmobility totalCO2Emission 194.45931885709
scalar RSUExampleScenario2.node[16].appl generatedWSMs 0
scalar RSUExampleScenario2.node[16].appl receivedWSMs 0
scalar RSUExampleScenario2.node[16].appl generatedBSMs 3
scalar RSUExampleScenario2.node[16].appl receivedBSMs 33
scalar RSUExampleScenario2.node[16].appl generatedWSAs 0
scalar RSUExampleScenario2.node[16].appl receivedWSAs 0
scalar RSUExampleScenario2.node[16].nic.phy80211p busyTime 4.3943303056762e-05
scalar RSUExampleScenario2.node[16].nic.mac1609_4 ReceivedUnicastPackets 0
scalar RSUExampleScenario2.node[16].nic.mac1609_4 ReceivedBroadcasts 33
scalar RSUExampleScenario2.node[16].nic.mac1609_4 SentPackets 3
scalar RSUExampleScenario2.node[16].nic.mac1609_4 SentAcknowledgements 0
scalar RSUExampleScenario2.node[16].nic.mac1609_4 SNIRLostPackets 0
scalar RSUExampleScenario2.node[16].nic.mac1609_4 RXTXLostPackets 0
scalar RSUExampleScenario2.node[16].nic.mac1609_4 TotalLostPackets 0
scalar RSUExampleScenario2.node[16].nic.mac1609_4 DroppedPacketsInMac 0
scalar RSUExampleScenario2.node[16].nic.mac1609_4 TooLittleTime 0
scalar RSUExampleScenario2.node[16].nic.mac1609_4 TimesIntoBackoff 3
scalar RSUExampleScenario2.node[16].nic.mac1609_4 SlotsBackoff 4
scalar RSUExampleScenario2.node[16].nic.mac1609_4 NumInternalContention 0
scalar RSUExampleScenario2.node[16].nic.mac1609_4 totalBusyTime 0.003747
scalar RSUExampleScenario2.node[16].veinsmobility startTime 301
scalar RSUExampleScenario2.node[16].veinsmobility totalTime 78
scalar RSUExampleScenario2.node[16].veinsmobility stopTime 379.10063789622
scalar RSUExampleScenario2.node[16].veinsmobility minSpeed 8.0504896414604
scalar RSUExampleScenario2.node[16].veinsmobility maxSpeed 19.99971972378
scalar RSUExampleScenario2.node[16].veinsmobility totalDistance 1505.0145489747
scalar RSUExampleScenario2.node[16].veinsmobility totalCO2Emission 196.75185333412
scalar RSUExampleScenario2.node[17].appl generatedWSMs 0
scalar RSUExampleScenario2.node[17].appl receivedWSMs 0
scalar RSUExampleScenario2.node[17].appl generatedBSMs 3
scalar RSUExampleScenario2.node[17].appl receivedBSMs 39
scalar RSUExampleScenario2.node[17].appl generatedWSAs 0
scalar RSUExampleScenario2.node[17].appl receivedWSAs 0
scalar RSUExampleScenario2.node[17].nic.phy80211p busyTime 5.1932994521628e-05
scalar RSUExampleScenario2.node[17].nic.mac1609_4 ReceivedUnicastPackets 0
scalar RSUExampleScenario2.node[17].nic.mac1609_4 ReceivedBroadcasts 39
scalar RSUExampleScenario2.node[17].nic.mac1609_4 SentPackets 3
scalar RSUExampleScenario2.node[17].nic.mac1609_4 SentAcknowledgements 0
scalar RSUExampleScenario2.node[17].nic.mac1609_4 SNIRLostPackets 0
scalar RSUExampleScenario2.node[17].nic.mac1609_4 RXTXLostPackets 0
scalar RSUExampleScenario2.node[17].nic.mac1609_4 TotalLostPackets 0
scalar RSUExampleScenario2.node[17].nic.mac1609_4 DroppedPacketsInMac 0
scalar RSUExampleScenario2.node[17].nic.mac1609_4 TooLittleTime 0
scalar RSUExampleScenario2.node[17].nic.mac1609_4 TimesIntoBackoff 3
scalar RSUExampleScenario2.node[17].nic.mac1609_4 SlotsBackoff 5
scalar RSUExampleScenario2.node[17].nic.mac1609_4 NumInternalContention 0
scalar RSUExampleScenario2.node[17].nic.mac1609_4 totalBusyTime 0.004371
scalar RSUExampleScenario2.node[17].veinsmobility startTime 301
scalar RSUExampleScenario2.node[17].veinsmobility totalTime 78
scalar RSUExampleScenario2.node[17].veinsmobility stopTime 379.10063789622
scalar RSUExampleScenario2.node[17].veinsmobility minSpeed 16.110977969857
scalar RSUExampleScenario2.node[17].veinsmobility maxSpeed 19.998551893374
scalar RSUExampleScenario2.node[17].veinsmobility totalDistance 1543.745481682
scalar RSUExampleScenario2.node[17].veinsmobility totalCO2Emission 212.1266073308
scalar RSUExampleScenario2.node[18].appl generatedWSMs 0
scalar RSUExampleScenario2.node[18].appl receivedWSMs 0
scalar RSUExampleScenario2.node[18].appl generatedBSMs 3
scalar RSUExampleScenario2.node[18].appl receivedBSMs 39
scalar RSUExampleScenario2.node[18].appl generatedWSAs 0
scalar RSUExampleScenario2.node[18].appl receivedWSAs 0
scalar RSUExampleScenario2.node[18].nic.phy80211p busyTime 5.1932994521628e-05
scalar RSUExampleScenario2.node[18].nic.mac1609_4 ReceivedUnicastPackets 0
scalar RSUExampleScenario2.node[18].nic.mac1609_4 ReceivedBroadcasts 39
scalar RSUExampleScenario2.node[18].nic.mac1609_4 SentPackets 3
scalar RSUExampleScenario2.node[18].nic.mac1609_4 SentAcknowledgements 0
scalar RSUExampleScenario2.node[18].nic.mac1609_4 SNIRLostPackets 0
scalar RSUExampleScenario2.node[18].nic.mac1609_4 RXTXLostPackets 0
scalar RSUExampleScenario2.node[18].nic.mac1609_4 TotalLostPackets 0
scalar RSUExampleScenario2.node[18].nic.mac1609_4 DroppedPacketsInMac 0
scalar RSUExampleScenario2.node[18].nic.mac1609_4 TooLittleTime 0
scalar RSUExampleScenario2.node[18].nic.mac1609_4 TimesIntoBackoff 3
scalar RSUExampleScenario2.node[18].nic.mac1609_4 SlotsBackoff 4
scalar RSUExampleScenario2.node[18].nic.mac1609_4 NumInternalContention 0
scalar RSUExampleScenario2.node[18].nic.mac1609_4 totalBusyTime 0.004371
scalar RSUExampleScenario2.node[18].veinsmobility startTime 301
scalar RSUExampleScenario2.node[18].veinsmobility totalTime 78
scalar RSUExampleScenario2.node[18].veinsmobility stopTime 379.10063789622
scalar RSUExampleScenario2.node[18].veinsmobility minSpeed 19.139365530988
scalar RSUExampleScenario2.node[18].veinsmobility maxSpeed 19.236706486201
scalar RSUExampleScenario2.node[18].veinsmobility totalDistance 1496.4350177352
scalar RSUExampleScenario2.node[18].veinsmobility totalCO2Emission 207.06311276366
scalar RSUExampleScenario2.node[19].appl generatedWSMs 0
scalar RSUExampleScenario2.node[19].appl receivedWSMs 0
scalar RSUExampleScenario2.node[19].appl generatedBSMs 3
scalar RSUExampleScenario2.node[19].appl receivedBSMs 36
scalar RSUExampleScenario2.node[19].appl generatedWSAs 0
scalar RSUExampleScenario2.node[19].appl receivedWSAs 0
scalar RSUExampleScenario2.node[19].nic.phy80211p busyTime 4.7938148789195e-05
scalar RSUExampleScenario2.node[19].nic.mac1609_4 ReceivedUnicastPackets 0
scalar RSUExampleScenario2.node[19].nic.mac1609_4 ReceivedBroadcasts 36
scalar RSUExampleScenario2.node[19].nic.mac1609_4 SentPackets 3
scalar RSUExampleScenario2.node[19].nic.mac1609_4 SentAcknowledgements 0
scalar RSUExampleScenario2.node[19].nic.mac1609_4 SNIRLostPackets 0
scalar RSUExampleScenario2.node[19].nic.mac1609_4 RXTXLostPackets 0
scalar RSUExampleScenario2.node[19].nic.mac1609_4 TotalLostPackets 0
scalar RSUExampleScenario2.node[19].nic.mac1609_4 DroppedPacketsInMac 0
scalar RSUExampleScenario2.node[19].nic.mac1609_4 TooLittleTime 0
scalar RSUExampleScenario2.node[19].nic.mac1609_4 TimesIntoBackoff 3
scalar RSUExampleScenario2.node[19].nic.mac1609_4 SlotsBackoff 6
scalar RSUExampleScenario2.node[19].nic.mac1609_4 NumInternalContention 0
scalar RSUExampleScenario2.node[19].nic.mac1609_4 totalBusyTime 0.004059
scalar RSUExampleScenario2.node[19].veinsmobility startTime 301
scalar RSUExampleScenario2.node[19].veinsmobility totalTime 78
scalar RSUExampleScenario2.node[19].veinsmobility stopTime 379.10063789622
scalar RSUExampleScenario2.node[19].veinsmobility minSpeed 19.187033386589
scalar RSUExampleScenario2.node[19].veinsmobility maxSpeed 19.716203610282
scalar RSUExampleScenario2.node[19].veinsmobility totalDistance 1530.4388649674
scalar RSUExampleScenario2.node[19].veinsmobility totalCO2Emission 212.11173599884
scalar RSUExampleScenario2.node[20].appl generatedWSMs 0
scalar RSUExampleScenario2.node[20].appl receivedWSMs 0
scalar RSUExampleScenario2.node[20].appl generatedBSMs 3
scalar RSUExampleScenario2.node[20].appl receivedBSMs 37
scalar RSUExampleScenario2.node[20].appl generatedWSAs 0
scalar RSUExampleScenario2.node[20].appl receivedWSAs 0
scalar RSUExampleScenario2.node[20].nic.phy80211p busyTime 4.9269764033339e-05
scalar RSUExampleScenario2.node[20].nic.mac1609_4 ReceivedUnicastPackets 0
scalar RSUExampleScenario2.node[20].nic.mac1609_4 ReceivedBroadcasts 37
scalar RSUExampleScenario2.node[20].nic.mac1609_4 SentPackets 3
scalar RSUExampleScenario2.node[20].nic.mac1609_4 SentAcknowledgements 0
scalar RSUExampleScenario2.node[20].nic.mac1609_4 SNIRLostPackets 0
scalar RSUExampleScenario2.node[20].nic.mac1609_4 RXTXLostPackets 0
scalar RSUExampleScenario2.node[20].nic.mac1609_4 TotalLostPackets 0
scalar RSUExampleScenario2.node[20].nic.mac1609_4 DroppedPacketsInMac 0
scalar RSUExampleScenario2.node[20].nic.mac1609_4 TooLittleTime 0
scalar RSUExampleScenario2.node[20].nic.mac1609_4 TimesIntoBackoff 3
scalar RSUExampleScenario2.node[20].nic.mac1609_4 SlotsBackoff 6
scalar RSUExampleScenario2.node[20].nic.mac1609_4 NumInternalContention 0
scalar RSUExampleScenario2.node[20].nic.mac1609_4 totalBusyTime 0.004163
scalar RSUExampleScenario2.node[20].veinsmobility startTime 301
scalar RSUExampleScenario2.node[20].veinsmobility totalTime 78
scalar RSUExampleScenario2.node[20].veinsmobility stopTime 379.10063789622
scalar RSUExampleScenario2.node[20].veinsmobility minSpeed 0
scalar RSUExampleScenario2.node[20].veinsmobility maxSpeed 19.998663898953
scalar RSUExampleScenario2.node[20].veinsmobility totalDistance 1465.9763780426
scalar RSUExampleScenario2.node[20].veinsmobility totalCO2Emission 205.15701335282
scalar RSUExampleScenario2.node[21].appl generatedWSMs 0
scalar RSUExampleScenario2.node[21].appl receivedWSMs 0
scalar RSUExampleScenario2.node[21].appl generatedBSMs 3
scalar RSUExampleScenario2.node[21].appl receivedBSMs 41
scalar RSUExampleScenario2.node[21].appl generatedWSAs 0
scalar RSUExampleScenario2.node[21].appl receivedWSAs 0
scalar RSUExampleScenario2.node[21].nic.phy80211p busyTime 5.4596225009917e-05
scalar RSUExampleScenario2.node[21].nic.mac1609_4 ReceivedUnicastPackets 0
scalar RSUExampleScenario2.node[21].nic.mac1609_4 ReceivedBroadcasts 41
scalar RSUExampleScenario2.node[21].nic.mac1609_4 SentPackets 3
scalar RSUExampleScenario2.node[21].nic.mac1609_4 SentAcknowledgements 0
scalar RSUExampleScenario2.node[21].nic.mac1609_4 SNIRLostPackets 0
scalar RSUExampleScenario2.node[21].nic.mac1609_4 RXTXLostPackets 0
scalar RSUExampleScenario2.node[21].nic.mac1609_4 TotalLostPackets 0
scalar RSUExampleScenario2.node[21].nic.mac1609_4 DroppedPacketsInMac 0
scalar RSUExampleScenario2.node[21].nic.mac1609_4 TooLittleTime 0
scalar RSUExampleScenario2.node[21].nic.mac1609_4 TimesIntoBackoff 3
scalar RSUExampleScenario2.node[21].nic.mac1609_4 SlotsBackoff 8
scalar RSUExampleScenario2.node[21].nic.mac1609_4 NumInternalContention 0
scalar RSUExampleScenario2.node[21].nic.mac1609_4 totalBusyTime 0.004579
scalar RSUExampleScenario2.node[21].veinsmobility startTime 301
scalar RSUExampleScenario2.node[21].veinsmobility totalTime 78
scalar RSUExampleScenario2.node[21].veinsmobility stopTime 379.10063789622
scalar RSUExampleScenario2.node[21].veinsmobility minSpeed 17.748537257192
scalar RSUExampleScenario2.node[21].veinsmobility maxSpeed 17.846131609981
scalar RSUExampleScenario2.node[21].veinsmobility totalDistance 1388.0709003707
scalar RSUExampleScenario2.node[21].veinsmobility totalCO2Emission 191.99490843451
scalar RSUExampleScenario2.node[22].appl generatedWSMs 0
scalar RSUExampleScenario2.node[22].appl receivedWSMs 0
scalar RSUExampleScenario2.node[22].appl generatedBSMs 3
scalar RSUExampleScenario2.node[22].appl receivedBSMs 40
scalar RSUExampleScenario2.node[22].appl generatedWSAs 0
scalar RSUExampleScenario2.node[22].appl receivedWSAs 0
scalar RSUExampleScenario2.node[22].nic.phy80211p busyTime 5.3264609765772e-05
scalar RSUExampleScenario2.node[22].nic.mac1609_4 ReceivedUnicastPackets 0
scalar RSUExampleScenario2.node[22].nic.mac1609_4 ReceivedBroadcasts 40
scalar RSUExampleScenario2.node[22].nic.mac1609_4 SentPackets 3
scalar RSUExampleScenario2.node[22].nic.mac1609_4 SentAcknowledgements 0
scalar RSUExampleScenario2.node[22].nic.mac1609_4 SNIRLostPackets 0
scalar RSUExampleScenario2.node[22].nic.mac1609_4 RXTXLostPackets 0
scalar RSUExampleScenario2.node[22].nic.mac1609_4 TotalLostPackets 0
scalar RSUExampleScenario2.node[22].nic.mac1609_4 DroppedPacketsInMac 0
scalar RSUExampleScenario2.node[22].nic.mac1609_4 TooLittleTime 0
scalar RSUExampleScenario2.node[22].nic.mac1609_4 TimesIntoBackoff 3
scalar RSUExampleScenario2.node[22].nic.mac1609_4 SlotsBackoff 3
scalar RSUExampleScenario2.node[22].nic.mac1609_4 NumInternalContention 0
scalar RSUExampleScenario2.node[22].nic.mac1609_4 totalBusyTime 0.004475
scalar RSUExampleScenario2.node[22].veinsmobility startTime 301
scalar RSUExampleScenario2.node[22].veinsmobility totalTime 78
scalar RSUExampleScenario2.node[22].veinsmobility stopTime 379.10063789622
scalar RSUExampleScenario2.node[22].veinsmobility minSpeed 17.405009254497
scalar RSUExampleScenario2.node[22].veinsmobility maxSpeed 17.501691269256
scalar RSUExampleScenario2.node[22].veinsmobility totalDistance 1361.2996104562
scalar RSUExampleScenario2.node[22].veinsmobility totalCO2Emission 188.14747754194
scalar RSUExampleScenario2.node[23].appl generatedWSMs 0
scalar RSUExampleScenario2.node[23].appl receivedWSMs 0
scalar RSUExampleScenario2.node[23].appl generatedBSMs 3
scalar RSUExampleScenario2.node[23].appl receivedBSMs 43
scalar RSUExampleScenario2.node[23].appl generatedWSAs 0
scalar RSUExampleScenario2.node[23].appl receivedWSAs 0
scalar RSUExampleScenario2.node[23].nic.phy80211p busyTime 5.7259455498205e-05
scalar RSUExampleScenario2.node[23].nic.mac1609_4 ReceivedUnicastPackets 0
scalar RSUExampleScenario2.node[23].nic.mac1609_4 ReceivedBroadcasts 43
scalar RSUExampleScenario2.node[23].nic.mac1609_4 SentPackets 3
scalar RSUExampleScenario2.node[23].nic.mac1609_4 SentAcknowledgements 0
scalar RSUExampleScenario2.node[23].nic.mac1609_4 SNIRLostPackets 0
scalar RSUExampleScenario2.node[23].nic.mac1609_4 RXTXLostPackets 0
scalar RSUExampleScenario2.node[23].nic.mac1609_4 TotalLostPackets 0
scalar RSUExampleScenario2.node[23].nic.mac1609_4 DroppedPacketsInMac 0
scalar RSUExampleScenario2.node[23].nic.mac1609_4 TooLittleTime 0
scalar RSUExampleScenario2.node[23].nic.mac1609_4 TimesIntoBackoff 3
scalar RSUExampleScenario2.node[23].nic.mac1609_4 SlotsBackoff 5
scalar RSUExampleScenario2.node[23].nic.mac1609_4 NumInternalContention 0
scalar RSUExampleScenario2.node[23].nic.mac1609_4 totalBusyTime 0.004787
scalar RSUExampleScenario2.node[23].veinsmobility startTime 301
scalar RSUExampleScenario2.node[23].veinsmobility totalTime 78
scalar RSUExampleScenario2.node[23].veinsmobility stopTime 379.10063789622
scalar RSUExampleScenario2.node[23].veinsmobility minSpeed 17.402780096582
scalar RSUExampleScenario2.node[23].veinsmobility maxSpeed 18.295063805811
scalar RSUExampleScenario2.node[23].veinsmobility totalDistance 1412.2531522074
scalar RSUExampleScenario2.node[23].veinsmobility totalCO2Emission 195.02065193221
scalar RSUExampleScenario2.node[24].appl generatedWSMs 0
scalar RSUExampleScenario2.node[24].appl receivedWSMs 0
scalar RSUExampleScenario2.node[24].appl generatedBSMs 3
scalar RSUExampleScenario2.node[24].appl receivedBSMs 52
scalar RSUExampleScenario2.node[24].appl generatedWSAs 0
scalar RSUExampleScenario2.node[24].appl receivedWSAs 0
scalar RSUExampleScenario2.node[24].nic.phy80211p busyTime 6.9243992695504e-05
scalar RSUExampleScenario2.node[24].nic.mac1609_4 ReceivedUnicastPackets 0
scalar RSUExampleScenario2.node[24].nic.mac1609_4 ReceivedBroadcasts 52
scalar RSUExampleScenario2.node[24].nic.mac1609_4 SentPackets 3
scalar RSUExampleScenario2.node[24].nic.mac1609_4 SentAcknowledgements 0
scalar RSUExampleScenario2.node[24].nic.mac1609_4 SNIRLostPackets 0
scalar RSUExampleScenario2.node[24].nic.mac1609_4 RXTXLostPackets 0
scalar RSUExampleScenario2.node[24].nic.mac1609_4 TotalLostPackets 0
scalar RSUExampleScenario2.node[24].nic.mac1609_4 DroppedPacketsInMac 0
scalar RSUExampleScenario2.node[24].nic.mac1609_4 TooLittleTime 0
scalar RSUExampleScenario2.node[24].nic.mac1609_4 TimesIntoBackoff 3
scalar RSUExampleScenario2.node[24].nic.mac1609_4 SlotsBackoff 9
scalar RSUExampleScenario2.node[24].nic.mac1609_4 NumInternalContention 0
scalar RSUExampleScenario2.node[24].nic.mac1609_4 totalBusyTime 0.005723
scalar RSUExampleScenario2.node[24].veinsmobility startTime 301
scalar RSUExampleScenario2.node[24].veinsmobility totalTime 78
scalar RSUExampleScenario2.node[24].veinsmobility stopTime 379.10063789622
scalar RSUExampleScenario2.node[24].veinsmobility minSpeed 18.717440106705
scalar RSUExampleScenario2.node[24].veinsmobility maxSpeed 18.815614387332
scalar RSUExampleScenario2.node[24].veinsmobility totalDistance 1463.5877872231
scalar RSUExampleScenario2.node[24].veinsmobility totalCO2Emission 201.897595272
scalar RSUExampleScenario2.node[25].appl generatedWSMs 0
scalar RSUExampleScenario2.node[25].appl receivedWSMs 0
scalar RSUExampleScenario2.node[25].appl generatedBSMs 3
scalar RSUExampleScenario2.node[25].appl receivedBSMs 41
scalar RSUExampleScenario2.node[25].appl generatedWSAs 0
scalar RSUExampleScenario2.node[25].appl receivedWSAs 0
scalar RSUExampleScenario2.node[25].nic.phy80211p busyTime 5.4596225009917e-05
scalar RSUExampleScenario2.node[25].nic.mac1609_4 ReceivedUnicastPackets 0
scalar RSUExampleScenario2.node[25].nic.mac1609_4 ReceivedBroadcasts 41
scalar RSUExampleScenario2.node[25].nic.mac1609_4 SentPackets 3
scalar RSUExampleScenario2.node[25].nic.mac1609_4 SentAcknowledgements 0
scalar RSUExampleScenario2.node[25].nic.mac1609_4 SNIRLostPackets 0
scalar RSUExampleScenario2.node[25].nic.mac1609_4 RXTXLostPackets 0
scalar RSUExampleScenario2.node[25].nic.mac1609_4 TotalLostPackets 0
scalar RSUExampleScenario2.node[25].nic.mac1609_4 DroppedPacketsInMac 0
scalar RSUExampleScenario2.node[25].nic.mac1609_4 TooLittleTime 0
scalar RSUExampleScenario2.node[25].nic.mac1609_4 TimesIntoBackoff 3
scalar RSUExampleScenario2.node[25].nic.mac1609_4 SlotsBackoff 6
scalar RSUExampleScenario2.node[25].nic.mac1609_4 NumInternalContention 0
scalar RSUExampleScenario2.node[25].nic.mac1609_4 totalBusyTime 0.004579
scalar RSUExampleScenario2.node[25].veinsmobility startTime 301
scalar RSUExampleScenario2.node[25].veinsmobility totalTime 78
scalar RSUExampleScenario2.node[25].veinsmobility stopTime 379.10063789622
scalar RSUExampleScenario2.node[25].veinsmobility minSpeed 19.900218011113
scalar RSUExampleScenario2.node[25].veinsmobility maxSpeed 19.999343949044
scalar RSUExampleScenario2.node[25].veinsmobility totalDistance 1556.1581437934
scalar RSUExampleScenario2.node[25].veinsmobility totalCO2Emission 215.98948191374
scalar RSUExampleScenario2.node[26].appl generatedWSMs 0
scalar RSUExampleScenario2.node[26].appl receivedWSMs 0
scalar RSUExampleScenario2.node[26].appl generatedBSMs 3
scalar RSUExampleScenario2.node[26].appl receivedBSMs 42
scalar RSUExampleScenario2.node[26].appl generatedWSAs 0
scalar RSUExampleScenario2.node[26].appl receivedWSAs 0
scalar RSUExampleScenario2.node[26].nic.phy80211p busyTime 5.5927840254061e-05
scalar RSUExampleScenario2.node[26].nic.mac1609_4 ReceivedUnicastPackets 0
scalar RSUExampleScenario2.node[26].nic.mac1609_4 ReceivedBroadcasts 42
scalar RSUExampleScenario2.node[26].nic.mac1609_4 SentPackets 3
scalar RSUExampleScenario2.node[26].nic.mac1609_4 SentAcknowledgements 0
scalar RSUExampleScenario2.node[26].nic.mac1609_4 SNIRLostPackets 0
scalar RSUExampleScenario2.node[26].nic.mac1609_4 RXTXLostPackets 0
scalar RSUExampleScenario2.node[26].nic.mac1609_4 TotalLostPackets 0
scalar RSUExampleScenario2.node[26].nic.mac1609_4 DroppedPacketsInMac 0
scalar RSUExampleScenario2.node[26].nic.mac1609_4 TooLittleTime 0
scalar RSUExampleScenario2.node[26].nic.mac1609_4 TimesIntoBackoff 3
scalar RSUExampleScenario2.node[26].nic.mac1609_4 SlotsBackoff 3
scalar RSUExampleScenario2.node[26].nic.mac1609_4 NumInternalContention 0
scalar RSUExampleScenario2.node[26].nic.mac1609_4 totalBusyTime 0.004683
scalar RSUExampleScenario2.node[26].veinsmobility startTime 301
scalar RSUExampleScenario2.node[26].veinsmobility totalTime 78
scalar RSUExampleScenario2.node[26].veinsmobility stopTime 379.10063789622
scalar RSUExampleScenario2.node[26].veinsmobility minSpeed 16.83021480644
scalar RSUExampleScenario2.node[26].veinsmobility maxSpeed 19.998978722142
scalar RSUExampleScenario2.node[26].veinsmobility totalDistance 1479.0036869156
scalar RSUExampleScenario2.node[26].veinsmobility totalCO2Emission 212.25208360798
scalar RSUExampleScenario2.node[27].appl generatedWSMs 0
scalar RSUExampleScenario2.node[27].appl receivedWSMs 0
scalar RSUExampleScenario2.node[27].appl generatedBSMs 3
scalar RSUExampleScenario2.node[27].appl receivedBSMs 43
scalar RSUExampleScenario2.node[27].appl generatedWSAs 0
scalar RSUExampleScenario2.node[27].appl receivedWSAs 0
scalar RSUExampleScenario2.node[27].nic.phy80211p busyTime 5.7259455498205e-05
scalar RSUExampleScenario2.node[27].nic.mac1609_4 ReceivedUnicastPackets 0
scalar RSUExampleScenario2.node[27].nic.mac1609_4 ReceivedBroadcasts 43
scalar RSUExampleScenario2.node[27].nic.mac1609_4 SentPackets 3
scalar RSUExampleScenario2.node[27].nic.mac1609_4 SentAcknowledgements 0
scalar RSUExampleScenario2.node[27].nic.mac1609_4 SNIRLostPackets 0
scalar RSUExampleScenario2.node[27].nic.mac1609_4 RXTXLostPackets 0
scalar RSUExampleScenario2.node[27].nic.mac1609_4 TotalLostPackets 0
scalar RSUExampleScenario2.node[27].nic.mac1609_4 DroppedPacketsInMac 0
scalar RSUExampleScenario2.node[27].nic.mac1609_4 TooLittleTime 0
scalar RSUExampleScenario2.node[27].nic.mac1609_4 TimesIntoBackoff 3
scalar RSUExampleScenario2.node[27].nic.mac1609_4 SlotsBackoff 1
scalar RSUExampleScenario2.node[27].nic.mac1609_4 NumInternalContention 0
scalar RSUExampleScenario2.node[27].nic.mac1609_4 totalBusyTime 0.004787
scalar RSUExampleScenario2.node[27].veinsmobility startTime 301
scalar RSUExampleScenario2.node[27].veinsmobility totalTime 78
scalar RSUExampleScenario2.node[27].veinsmobility stopTime 379.10063789622
scalar RSUExampleScenario2.node[27].veinsmobility minSpeed 13.359416620864
scalar RSUExampleScenario2.node[27].veinsmobility maxSpeed 19.001270946936
scalar RSUExampleScenario2.node[27].veinsmobility totalDistance 1461.7860584677
scalar RSUExampleScenario2.node[27].veinsmobility totalCO2Emission 225.8066814113
scalar RSUExampleScenario2.node[28].appl generatedWSMs 0
scalar RSUExampleScenario2.node[28].appl receivedWSMs 0
scalar RSUExampleScenario2.node[28].appl generatedBSMs 3
scalar RSUExampleScenario2.node[28].appl receivedBSMs 44
scalar RSUExampleScenario2.node[28].appl generatedWSAs 0
scalar RSUExampleScenario2.node[28].appl receivedWSAs 0
scalar RSUExampleScenario2.node[28].nic.phy80211p busyTime 5.859107074235e-05
scalar RSUExampleScenario2.node[28].nic.mac1609_4 ReceivedUnicastPackets 0
scalar RSUExampleScenario2.node[28].nic.mac1609_4 ReceivedBroadcasts 44
scalar RSUExampleScenario2.node[28].nic.mac1609_4 SentPackets 3
scalar RSUExampleScenario2.node[28].nic.mac1609_4 SentAcknowledgements 0
scalar RSUExampleScenario2.node[28].nic.mac1609_4 SNIRLostPackets 0
scalar RSUExampleScenario2.node[28].nic.mac1609_4 RXTXLostPackets 0
scalar RSUExampleScenario2.node[28].nic.mac1609_4 TotalLostPackets 0
scalar RSUExampleScenario2.node[28].nic.mac1609_4 DroppedPacketsInMac 0
scalar RSUExampleScenario2.node[28].nic.mac1609_4 TooLittleTime 0
scalar RSUExampleScenario2.node[28].nic.mac1609_4 TimesIntoBackoff 3
scalar RSUExampleScenario2.node[28].nic.mac1609_4 SlotsBackoff 1
scalar RSUExampleScenario2.node[28].nic.mac1609_4 NumInternalContention 0
scalar RSUExampleScenario2.node[28].nic.mac1609_4 totalBusyTime 0.004891
scalar RSUExampleScenario2.node[28].veinsmobility startTime 301
scalar RSUExampleScenario2.node[28].veinsmobility totalTime 78
scalar RSUExampleScenario2.node[28].veinsmobility stopTime 379.10063789622
scalar RSUExampleScenario2.node[28].veinsmobility minSpeed 9.9989492361545
scalar RSUExampleScenario2.node[28].veinsmobility maxSpeed 18.359824229308
scalar RSUExampleScenario2.node[28].veinsmobility totalDistance 1397.9638260018
scalar RSUExampleScenario2.node[28].veinsmobility totalCO2Emission 224.96938398513
scalar RSUExampleScenario2.node[29].appl generatedWSMs 0
scalar RSUExampleScenario2.node[29].appl receivedWSMs 0
scalar RSUExampleScenario2.node[29].appl generatedBSMs 3
scalar RSUExampleScenario2.node[29].appl receivedBSMs 45
scalar RSUExampleScenario2.node[29].appl generatedWSAs 0
scalar RSUExampleScenario2.node[29].appl receivedWSAs 0
scalar RSUExampleScenario2.node[29].nic.phy80211p busyTime 5.9922685986494e-05
scalar RSUExampleScenario2.node[29].nic.mac1609_4 ReceivedUnicastPackets 0
scalar RSUExampleScenario2.node[29].nic.mac1609_4 ReceivedBroadcasts 45
scalar RSUExampleScenario2.node[29].nic.mac1609_4 SentPackets 3
scalar RSUExampleScenario2.node[29].nic.mac1609_4 SentAcknowledgements 0
scalar RSUExampleScenario2.node[29].nic.mac1609_4 SNIRLostPackets 0
scalar RSUExampleScenario2.node[29].nic.mac1609_4 RXTXLostPackets 0
scalar RSUExampleScenario2.node[29].nic.mac1609_4 TotalLostPackets 0
scalar RSUExampleScenario2.node[29].nic.mac1609_4 DroppedPacketsInMac 0
scalar RSUExampleScenario2.node[29].nic.mac1609_4 TooLittleTime 0
scalar RSUExampleScenario2.node[29].nic.mac1609_4 TimesIntoBackoff 3
scalar RSUExampleScenario2.node[29].nic.mac1609_4 SlotsBackoff 6
scalar RSUExampleScenario2.node[29].nic.mac1609_4 NumInternalContention 0
scalar RSUExampleScenario2.node[29].nic.mac1609_4 totalBusyTime 0.004995
scalar RSUExampleScenario2.node[29].veinsmobility startTime 301
scalar RSUExampleScenario2.node[29].veinsmobility totalTime 78
scalar RSUExampleScenario2.node[29].veinsmobility stopTime 379.10063789622
scalar RSUExampleScenario2.node[29].veinsmobility minSpeed 6.2572646402261
scalar RSUExampleScenario2.node[29].veinsmobility maxSpeed 19.999716396909
scalar RSUExampleScenario2.node[29].veinsmobility totalDistance 1478.4160339835
scalar RSUExampleScenario2.node[29].veinsmobility totalCO2Emission 251.66004755786
scalar RSUExampleScenario2.node[30].appl generatedWSMs 0
scalar RSUExampleScenario2.node[30].appl receivedWSMs 0
scalar RSUExampleScenario2.node[30].appl generatedBSMs 3
scalar RSUExampleScenario2.node[30].appl receivedBSMs 49
scalar RSUExampleScenario2.node[30].appl generatedWSAs 0
scalar RSUExampleScenario2.node[30].appl receivedWSAs 0
scalar RSUExampleScenario2.node[30].nic.phy80211p busyTime 6.5249146963071e-05
scalar RSUExampleScenario2.node[30].nic.mac1609_4 ReceivedUnicastPackets 0
scalar RSUExampleScenario2.node[30].nic.mac1609_4 ReceivedBroadcasts 49
scalar RSUExampleScenario2.node[30].nic.mac1609_4 SentPackets 3
scalar RSUExampleScenario2.node[30].nic.mac1609_4 SentAcknowledgements 0
scalar RSUExampleScenario2.node[30].nic.mac1609_4 SNIRLostPackets 0
scalar RSUExampleScenario2.node[30].nic.mac1609_4 RXTXLostPackets 0
scalar RSUExampleScenario2.node[30].nic.mac1609_4 TotalLostPackets 0
scalar RSUExampleScenario2.node[30].nic.mac1609_4 DroppedPacketsInMac 0
scalar RSUExampleScenario2.node[30].nic.mac1609_4 TooLittleTime 0
scalar RSUExampleScenario2.node[30].nic.mac1609_4 TimesIntoBackoff 3
scalar RSUExampleScenario2.node[30].nic.mac1609_4 SlotsBackoff 5
scalar RSUExampleScenario2.node[30].nic.mac1609_4 NumInternalContention 0
scalar RSUExampleScenario2.node[30].nic.mac1609_4 totalBusyTime 0.005411
scalar RSUExampleScenario2.node[30].veinsmobility startTime 301
scalar RSUExampleScenario2.node[30].veinsmobility totalTime 78
scalar RSUExampleScenario2.node[30].veinsmobility stopTime 379.10063789622
scalar RSUExampleScenario2.node[30].veinsmobility minSpeed 0
scalar RSUExampleScenario2.node[30].veinsmobility maxSpeed 18.770656314062
scalar RSUExampleScenario2.node[30].veinsmobility totalDistance 1271.5678675977
scalar RSUExampleScenario2.node[30].veinsmobility totalCO2Emission 227.842656793
scalar RSUExampleScenario2.node[252].appl generatedWSMs 0
scalar RSUExampleScenario2.node[252].appl receivedWSMs 0
scalar RSUExampleScenario2.node[252].appl generatedBSMs 3
scalar RSUExampleScenario2.node[252].appl receivedBSMs 35
scalar RSUExampleScenario2.node[252].appl generatedWSAs 0
scalar RSUExampleScenario2.node[252].appl receivedWSAs 0
scalar RSUExampleScenario2.node[252].nic.phy80211p busyTime 4.7831399323669e-05
scalar RSUExampleScenario2.node[252].nic.mac1609_4 ReceivedUnicastPackets 0
scalar RSUExampleScenario2.node[252].nic.mac1609_4 ReceivedBroadcasts 35
scalar RSUExampleScenario2.node[252].nic.mac1609_4 SentPackets 3
scalar RSUExampleScenario2.node[252].nic.mac1609_4 SentAcknowledgements 0
scalar RSUExampleScenario2.node[252].nic.mac1609_4 SNIRLostPackets 0
scalar RSUExampleScenario2.node[252].nic.mac1609_4 RXTXLostPackets 0
scalar RSUExampleScenario2.node[252].nic.mac1609_4 TotalLostPackets 0
scalar RSUExampleScenario2.node[252].nic.mac1609_4 DroppedPacketsInMac 0
scalar RSUExampleScenario2.node[252].nic.mac1609_4 TooLittleTime 0
scalar RSUExampleScenario2.node[252].nic.mac1609_4 TimesIntoBackoff 3
scalar RSUExampleScenario2.node[252].nic.mac1609_4 SlotsBackoff 5
scalar RSUExampleScenario2.node[252].nic.mac1609_4 NumInternalContention 0
scalar RSUExampleScenario2.node[252].nic.mac1609_4 totalBusyTime 0.003955
scalar RSUExampleScenario2.node[252].veinsmobility startTime 303
scalar RSUExampleScenario2.node[252].veinsmobility totalTime 76
scalar RSUExampleScenario2.node[252].veinsmobility stopTime 379.10063789622
scalar RSUExampleScenario2.node[252].veinsmobility minSpeed 2.2881388343345
scalar RSUExampleScenario2.node[252].veinsmobility maxSpeed 16.906258990333
scalar RSUExampleScenario2.node[252].veinsmobility totalDistance 1194.8352145656
scalar RSUExampleScenario2.node[252].veinsmobility totalCO2Emission 207.60968325681
scalar RSUExampleScenario2.node[255].appl generatedWSMs 0
scalar RSUExampleScenario2.node[255].appl receivedWSMs 0
scalar RSUExampleScenario2.node[255].appl generatedBSMs 3
scalar RSUExampleScenario2.node[255].appl receivedBSMs 23
scalar RSUExampleScenario2.node[255].appl generatedWSAs 0
scalar RSUExampleScenario2.node[255].appl receivedWSAs 0
scalar RSUExampleScenario2.node[255].nic.phy80211p busyTime 3.2722012677864e-05
scalar RSUExampleScenario2.node[255].nic.mac1609_4 ReceivedUnicastPackets 0
scalar RSUExampleScenario2.node[255].nic.mac1609_4 ReceivedBroadcasts 23
scalar RSUExampleScenario2.node[255].nic.mac1609_4 SentPackets 3
scalar RSUExampleScenario2.node[255].nic.mac1609_4 SentAcknowledgements 0
scalar RSUExampleScenario2.node[255].nic.mac1609_4 SNIRLostPackets 0
scalar RSUExampleScenario2.node[255].nic.mac1609_4 RXTXLostPackets 0
scalar RSUExampleScenario2.node[255].nic.mac1609_4 TotalLostPackets 0
scalar RSUExampleScenario2.node[255].nic.mac1609_4 DroppedPacketsInMac 0
scalar RSUExampleScenario2.node[255].nic.mac1609_4 TooLittleTime 0
scalar RSUExampleScenario2.node[255].nic.mac1609_4 TimesIntoBackoff 3
scalar RSUExampleScenario2.node[255].nic.mac1609_4 SlotsBackoff 8
scalar RSUExampleScenario2.node[255].nic.mac1609_4 NumInternalContention 0
scalar RSUExampleScenario2.node[255].nic.mac1609_4 totalBusyTime 0.002707
scalar RSUExampleScenario2.node[255].veinsmobility startTime 306
scalar RSUExampleScenario2.node[255].veinsmobility totalTime 73
scalar RSUExampleScenario2.node[255].veinsmobility stopTime 379.10063789622
scalar RSUExampleScenario2.node[255].veinsmobility minSpeed 3.1123095114831
scalar RSUExampleScenario2.node[255].veinsmobility maxSpeed 19.998985575652
scalar RSUExampleScenario2.node[255].veinsmobility totalDistance 1340.3077820409
scalar RSUExampleScenario2.node[255].veinsmobility totalCO2Emission 241.49301535061
scalar RSUExampleScenario2.node[256].appl generatedWSMs 0
scalar RSUExampleScenario2.node[256].appl receivedWSMs 0
scalar RSUExampleScenario2.node[256].appl generatedBSMs 3
scalar RSUExampleScenario2.node[256].appl receivedBSMs 26
scalar RSUExampleScenario2.node[256].appl generatedWSAs 0
scalar RSUExampleScenario2.node[256].appl receivedWSAs 0
scalar RSUExampleScenario2.node[256].nic.phy80211p busyTime 3.803060113113e-05
scalar RSUExampleScenario2.node[256].nic.mac1609_4 ReceivedUnicastPackets 0
scalar RSUExampleScenario2.node[256].nic.mac1609_4 ReceivedBroadcasts 26
scalar RSUExampleScenario2.node[256].nic.mac1609_4 SentPackets 3
scalar RSUExampleScenario2.node[256].nic.mac1609_4 SentAcknowledgements 0
scalar RSUExampleScenario2.node[256].nic.mac1609_4 SNIRLostPackets 0
scalar RSUExampleScenario2.node[256].nic.mac1609_4 RXTXLostPackets 0
scalar RSUExampleScenario2.node[256].nic.mac1609_4 TotalLostPackets 0
scalar RSUExampleScenario2.node[256].nic.mac1609_4 DroppedPacketsInMac 0
scalar RSUExampleScenario2.node[256].nic.mac1609_4 TooLittleTime 0
scalar RSUExampleScenario2.node[256].nic.mac1609_4 TimesIntoBackoff 3
scalar RSUExampleScenario2.node[256].nic.mac1609_4 SlotsBackoff 7
scalar RSUExampleScenario2.node[256].nic.mac1609_4 NumInternalContention 0
scalar RSUExampleScenario2.node[256].nic.mac1609_4 totalBusyTime 0.003019
scalar RSUExampleScenario2.node[256].veinsmobility startTime 308
scalar RSUExampleScenario2.node[256].veinsmobility totalTime 71
scalar RSUExampleScenario2.node[256].veinsmobility stopTime 379.10063789622
scalar RSUExampleScenario2.node[256].veinsmobility minSpeed 2.2994383460155
scalar RSUExampleScenario2.node[256].veinsmobility maxSpeed 19.999007489067
scalar RSUExampleScenario2.node[256].veinsmobility totalDistance 1277.3461751739
scalar RSUExampleScenario2.node[256].veinsmobility totalCO2Emission 244.81053778918
scalar RSUExampleScenario2.node[258].appl generatedWSMs 0
scalar RSUExampleScenario2.node[258].appl receivedWSMs 0
scalar RSUExampleScenario2.node[258].appl generatedBSMs 3
scalar RSUExampleScenario2.node[258].appl receivedBSMs 26
scalar RSUExampleScenario2.node[258].appl generatedWSAs 0
scalar RSUExampleScenario2.node[258].appl receivedWSAs 0
scalar RSUExampleScenario2.node[258].nic.phy80211p busyTime 3.9131331957616e-05
scalar RSUExampleScenario2.node[258].nic.mac1609_4 ReceivedUnicastPackets 0
scalar RSUExampleScenario2.node[258].nic.mac1609_4 ReceivedBroadcasts 26
scalar RSUExampleScenario2.node[258].nic.mac1609_4 SentPackets 3
scalar RSUExampleScenario2.node[258].nic.mac1609_4 SentAcknowledgements 0
scalar RSUExampleScenario2.node[258].nic.mac1609_4 SNIRLostPackets 0
scalar RSUExampleScenario2.node[258].nic.mac1609_4 RXTXLostPackets 0
scalar RSUExampleScenario2.node[258].nic.mac1609_4 TotalLostPackets 0
scalar RSUExampleScenario2.node[258].nic.mac1609_4 DroppedPacketsInMac 0
scalar RSUExampleScenario2.node[258].nic.mac1609_4 TooLittleTime 0
scalar RSUExampleScenario2.node[258].nic.mac1609_4 TimesIntoBackoff 3
scalar RSUExampleScenario2.node[258].nic.mac1609_4 SlotsBackoff 3
scalar RSUExampleScenario2.node[258].nic.mac1609_4 NumInternalContention 0
scalar RSUExampleScenario2.node[258].nic.mac1609_4 totalBusyTime 0.003019
scalar RSUExampleScenario2.node[258].veinsmobility startTime 310
scalar RSUExampleScenario2.node[258].veinsmobility totalTime 69
scalar RSUExampleScenario2.node[258].veinsmobility stopTime 379.10063789622
scalar RSUExampleScenario2.node[258].veinsmobility minSpeed 2.1848477870361
scalar RSUExampleScenario2.node[258].veinsmobility maxSpeed 17.963030360939
scalar RSUExampleScenario2.node[258].veinsmobility totalDistance 1135.6482182488
scalar RSUExampleScenario2.node[258].veinsmobility totalCO2Emission 203.79172440269
scalar RSUExampleScenario2.node[31].appl generatedWSMs 0
scalar RSUExampleScenario2.node[31].appl receivedWSMs 0
scalar RSUExampleScenario2.node[31].appl generatedBSMs 3
scalar RSUExampleScenario2.node[31].appl receivedBSMs 51
scalar RSUExampleScenario2.node[31].appl generatedWSAs 0
scalar RSUExampleScenario2.node[31].appl receivedWSAs 0
scalar RSUExampleScenario2.node[31].nic.phy80211p busyTime 6.791237745136e-05
scalar RSUExampleScenario2.node[31].nic.mac1609_4 ReceivedUnicastPackets 0
scalar RSUExampleScenario2.node[31].nic.mac1609_4 ReceivedBroadcasts 51
scalar RSUExampleScenario2.node[31].nic.mac1609_4 SentPackets 3
scalar RSUExampleScenario2.node[31].nic.mac1609_4 SentAcknowledgements 0
scalar RSUExampleScenario2.node[31].nic.mac1609_4 SNIRLostPackets 0
scalar RSUExampleScenario2.node[31].nic.mac1609_4 RXTXLostPackets 0
scalar RSUExampleScenario2.node[31].nic.mac1609_4 TotalLostPackets 0
scalar RSUExampleScenario2.node[31].nic.mac1609_4 DroppedPacketsInMac 0
scalar RSUExampleScenario2.node[31].nic.mac1609_4 TooLittleTime 0
scalar RSUExampleScenario2.node[31].nic.mac1609_4 TimesIntoBackoff 3
scalar RSUExampleScenario2.node[31].nic.mac1609_4 SlotsBackoff 4
scalar RSUExampleScenario2.node[31].nic.mac1609_4 NumInternalContention 0
scalar RSUExampleScenario2.node[31].nic.mac1609_4 totalBusyTime 0.005619
scalar RSUExampleScenario2.node[31].veinsmobility startTime 301
scalar RSUExampleScenario2.node[31].veinsmobility totalTime 78
scalar RSUExampleScenario2.node[31].veinsmobility stopTime 379.10063789622
scalar RSUExampleScenario2.node[31].veinsmobility minSpeed 18.761232623727
scalar RSUExampleScenario2.node[31].veinsmobility maxSpeed 19.541650586196
scalar RSUExampleScenario2.node[31].veinsmobility totalDistance 1516.9597874545
scalar RSUExampleScenario2.node[31].veinsmobility totalCO2Emission 210.08589203898
scalar RSUExampleScenario2.node[260].appl generatedWSMs 0
scalar RSUExampleScenario2.node[260].appl receivedWSMs 0
scalar RSUExampleScenario2.node[260].appl generatedBSMs 3
scalar RSUExampleScenario2.node[260].appl receivedBSMs 27
scalar RSUExampleScenario2.node[260].appl generatedWSAs 0
scalar RSUExampleScenario2.node[260].appl receivedWSAs 0
scalar RSUExampleScenario2.node[260].nic.phy80211p busyTime 4.248067930008e-05
scalar RSUExampleScenario2.node[260].nic.mac1609_4 ReceivedUnicastPackets 0
scalar RSUExampleScenario2.node[260].nic.mac1609_4 ReceivedBroadcasts 27
scalar RSUExampleScenario2.node[260].nic.mac1609_4 SentPackets 3
scalar RSUExampleScenario2.node[260].nic.mac1609_4 SentAcknowledgements 0
scalar RSUExampleScenario2.node[260].nic.mac1609_4 SNIRLostPackets 0
scalar RSUExampleScenario2.node[260].nic.mac1609_4 RXTXLostPackets 0
scalar RSUExampleScenario2.node[260].nic.mac1609_4 TotalLostPackets 0
scalar RSUExampleScenario2.node[260].nic.mac1609_4 DroppedPacketsInMac 0
scalar RSUExampleScenario2.node[260].nic.mac1609_4 TooLittleTime 0
scalar RSUExampleScenario2.node[260].nic.mac1609_4 TimesIntoBackoff 3
scalar RSUExampleScenario2.node[260].nic.mac1609_4 SlotsBackoff 4
scalar RSUExampleScenario2.node[260].nic.mac1609_4 NumInternalContention 0
scalar RSUExampleScenario2.node[260].nic.mac1609_4 totalBusyTime 0.003123
scalar RSUExampleScenario2.node[260].veinsmobility startTime 313
scalar RSUExampleScenario2.node[260].veinsmobility totalTime 66
scalar RSUExampleScenario2.node[260].veinsmobility stopTime 379.10063789622
scalar RSUExampleScenario2.node[260].veinsmobility minSpeed 2.948536461852
scalar RSUExampleScenario2.node[260].veinsmobility maxSpeed 16.162849082605
scalar RSUExampleScenario2.node[260].veinsmobility totalDistance 993.53838083721
scalar RSUExampleScenario2.node[260].veinsmobility totalCO2Emission 175.91642232793
scalar RSUExampleScenario2.node[262].appl generatedWSMs 0
scalar RSUExampleScenario2.node[262].appl receivedWSMs 0
scalar RSUExampleScenario2.node[262].appl generatedBSMs 3
scalar RSUExampleScenario2.node[262].appl receivedBSMs 29
scalar RSUExampleScenario2.node[262].appl generatedWSAs 0
scalar RSUExampleScenario2.node[262].appl receivedWSAs 0
scalar RSUExampleScenario2.node[262].nic.phy80211p busyTime 4.7051013827397e-05
scalar RSUExampleScenario2.node[262].nic.mac1609_4 ReceivedUnicastPackets 0
scalar RSUExampleScenario2.node[262].nic.mac1609_4 ReceivedBroadcasts 29
scalar RSUExampleScenario2.node[262].nic.mac1609_4 SentPackets 3
scalar RSUExampleScenario2.node[262].nic.mac1609_4 SentAcknowledgements 0
scalar RSUExampleScenario2.node[262].nic.mac1609_4 SNIRLostPackets 0
scalar RSUExampleScenario2.node[262].nic.mac1609_4 RXTXLostPackets 0
scalar RSUExampleScenario2.node[262].nic.mac1609_4 TotalLostPackets 0
scalar RSUExampleScenario2.node[262].nic.mac1609_4 DroppedPacketsInMac 0
scalar RSUExampleScenario2.node[262].nic.mac1609_4 TooLittleTime 0
scalar RSUExampleScenario2.node[262].nic.mac1609_4 TimesIntoBackoff 3
scalar RSUExampleScenario2.node[262].nic.mac1609_4 SlotsBackoff 4
scalar RSUExampleScenario2.node[262].nic.mac1609_4 NumInternalContention 0
scalar RSUExampleScenario2.node[262].nic.mac1609_4 totalBusyTime 0.003331
scalar RSUExampleScenario2.node[262].veinsmobility startTime 315
scalar RSUExampleScenario2.node[262].veinsmobility totalTime 64
scalar RSUExampleScenario2.node[262].veinsmobility stopTime 379.10063789622
scalar RSUExampleScenario2.node[262].veinsmobility minSpeed 2.2362652314577
scalar RSUExampleScenario2.node[262].veinsmobility maxSpeed 14.710508175179
scalar RSUExampleScenario2.node[262].veinsmobility totalDistance 875.50059964431
scalar RSUExampleScenario2.node[262].veinsmobility totalCO2Emission 156.60235341378
scalar RSUExampleScenario2.node[264].appl generatedWSMs 0
scalar RSUExampleScenario2.node[264].appl receivedWSMs 0
scalar RSUExampleScenario2.node[264].appl generatedBSMs 3
scalar RSUExampleScenario2.node[264].appl receivedBSMs 24
scalar RSUExampleScenario2.node[264].appl generatedWSAs 0
scalar RSUExampleScenario2.node[264].appl receivedWSAs 0
scalar RSUExampleScenario2.node[264].nic.phy80211p busyTime 4.0192823851041e-05
scalar RSUExampleScenario2.node[264].nic.mac1609_4 ReceivedUnicastPackets 0
scalar RSUExampleScenario2.node[264].nic.mac1609_4 ReceivedBroadcasts 24
scalar RSUExampleScenario2.node[264].nic.mac1609_4 SentPackets 3
scalar RSUExampleScenario2.node[264].nic.mac1609_4 SentAcknowledgements 0
scalar RSUExampleScenario2.node[264].nic.mac1609_4 SNIRLostPackets 0
scalar RSUExampleScenario2.node[264].nic.mac1609_4 RXTXLostPackets 0
scalar RSUExampleScenario2.node[264].nic.mac1609_4 TotalLostPackets 0
scalar RSUExampleScenario2.node[264].nic.mac1609_4 DroppedPacketsInMac 0
scalar RSUExampleScenario2.node[264].nic.mac1609_4 TooLittleTime 0
scalar RSUExampleScenario2.node[264].nic.mac1609_4 TimesIntoBackoff 3
scalar RSUExampleScenario2.node[264].nic.mac1609_4 SlotsBackoff 3
scalar RSUExampleScenario2.node[264].nic.mac1609_4 NumInternalContention 0
scalar RSUExampleScenario2.node[264].nic.mac1609_4 totalBusyTime 0.002811
scalar RSUExampleScenario2.node[264].veinsmobility startTime 317
scalar RSUExampleScenario2.node[264].veinsmobility totalTime 62
scalar RSUExampleScenario2.node[264].veinsmobility stopTime 379.10063789622
scalar RSUExampleScenario2.node[264].veinsmobility minSpeed 1.8540771796126
scalar RSUExampleScenario2.node[264].veinsmobility maxSpeed 19.999925135821
scalar RSUExampleScenario2.node[264].veinsmobility totalDistance 1105.5672622886
scalar RSUExampleScenario2.node[264].veinsmobility totalCO2Emission 210.54625255818
scalar RSUExampleScenario2.node[266].appl generatedWSMs 0
scalar RSUExampleScenario2.node[266].appl receivedWSMs 0
scalar RSUExampleScenario2.node[266].appl generatedBSMs 3
scalar RSUExampleScenario2.node[266].appl receivedBSMs 25
scalar RSUExampleScenario2.node[266].appl generatedWSAs 0
scalar RSUExampleScenario2.node[266].appl receivedWSAs 0
scalar RSUExampleScenario2.node[266].nic.phy80211p busyTime 4.3992756974394e-05
scalar RSUExampleScenario2.node[266].nic.mac1609_4 ReceivedUnicastPackets 0
scalar RSUExampleScenario2.node[266].nic.mac1609_4 ReceivedBroadcasts 25
scalar RSUExampleScenario2.node[266].nic.mac1609_4 SentPackets 3
scalar RSUExampleScenario2.node[266].nic.mac1609_4 SentAcknowledgements 0
scalar RSUExampleScenario2.node[266].nic.mac1609_4 SNIRLostPackets 0
scalar RSUExampleScenario2.node[266].nic.mac1609_4 RXTXLostPackets 0
scalar RSUExampleScenario2.node[266].nic.mac1609_4 TotalLostPackets 0
scalar RSUExampleScenario2.node[266].nic.mac1609_4 DroppedPacketsInMac 0
scalar RSUExampleScenario2.node[266].nic.mac1609_4 TooLittleTime 0
scalar RSUExampleScenario2.node[266].nic.mac1609_4 TimesIntoBackoff 3
scalar RSUExampleScenario2.node[266].nic.mac1609_4 SlotsBackoff 4
scalar RSUExampleScenario2.node[266].nic.mac1609_4 NumInternalContention 0
scalar RSUExampleScenario2.node[266].nic.mac1609_4 totalBusyTime 0.002915
scalar RSUExampleScenario2.node[266].veinsmobility startTime 320
scalar RSUExampleScenario2.node[266].veinsmobility totalTime 59
scalar RSUExampleScenario2.node[266].veinsmobility stopTime 379.10063789622
scalar RSUExampleScenario2.node[266].veinsmobility minSpeed 2.7725666340405
scalar RSUExampleScenario2.node[266].veinsmobility maxSpeed 19.167982786462
scalar RSUExampleScenario2.node[266].veinsmobility totalDistance 1016.5870931499
scalar RSUExampleScenario2.node[266].veinsmobility totalCO2Emission 198.36060924255
scalar RSUExampleScenario2.node[268].appl generatedWSMs 0
scalar RSUExampleScenario2.node[268].appl receivedWSMs 0
scalar RSUExampleScenario2.node[268].appl generatedBSMs 3
scalar RSUExampleScenario2.node[268].appl receivedBSMs 25
scalar RSUExampleScenario2.node[268].appl generatedWSAs 0
scalar RSUExampleScenario2.node[268].appl receivedWSAs 0
scalar RSUExampleScenario2.node[268].nic.phy80211p busyTime 4.5533641931033e-05
scalar RSUExampleScenario2.node[268].nic.mac1609_4 ReceivedUnicastPackets 0
scalar RSUExampleScenario2.node[268].nic.mac1609_4 ReceivedBroadcasts 25
scalar RSUExampleScenario2.node[268].nic.mac1609_4 SentPackets 3
scalar RSUExampleScenario2.node[268].nic.mac1609_4 SentAcknowledgements 0
scalar RSUExampleScenario2.node[268].nic.mac1609_4 SNIRLostPackets 0
scalar RSUExampleScenario2.node[268].nic.mac1609_4 RXTXLostPackets 0
scalar RSUExampleScenario2.node[268].nic.mac1609_4 TotalLostPackets 0
scalar RSUExampleScenario2.node[268].nic.mac1609_4 DroppedPacketsInMac 0
scalar RSUExampleScenario2.node[268].nic.mac1609_4 TooLittleTime 0
scalar RSUExampleScenario2.node[268].nic.mac1609_4 TimesIntoBackoff 3
scalar RSUExampleScenario2.node[268].nic.mac1609_4 SlotsBackoff 3
scalar RSUExampleScenario2.node[268].nic.mac1609_4 NumInternalContention 0
scalar RSUExampleScenario2.node[268].nic.mac1609_4 totalBusyTime 0.002915
scalar RSUExampleScenario2.node[268].veinsmobility startTime 322
scalar RSUExampleScenario2.node[268].veinsmobility totalTime 57
scalar RSUExampleScenario2.node[268].veinsmobility stopTime 379.10063789622
scalar RSUExampleScenario2.node[268].veinsmobility minSpeed 2.0075922163077
scalar RSUExampleScenario2.node[268].veinsmobility maxSpeed 19.07799391719
scalar RSUExampleScenario2.node[268].veinsmobility totalDistance 933.83169791726
scalar RSUExampleScenario2.node[268].veinsmobility totalCO2Emission 188.14616569677
scalar RSUExampleScenario2.node[270].appl generatedWSMs 0
scalar RSUExampleScenario2.node[270].appl receivedWSMs 0
scalar RSUExampleScenario2.node[270].appl generatedBSMs 3
scalar RSUExampleScenario2.node[270].appl receivedBSMs 23
scalar RSUExampleScenario2.node[270].appl generatedWSAs 0
scalar RSUExampleScenario2.node[270].appl receivedWSAs 0
scalar RSUExampleScenario2.node[270].nic.phy80211p busyTime 4.4213896416315e-05
scalar RSUExampleScenario2.node[270].nic.mac1609_4 ReceivedUnicastPackets 0
scalar RSUExampleScenario2.node[270].nic.mac1609_4 ReceivedBroadcasts 23
scalar RSUExampleScenario2.node[270].nic.mac1609_4 SentPackets 3
scalar RSUExampleScenario2.node[270].nic.mac1609_4 SentAcknowledgements 0
scalar RSUExampleScenario2.node[270].nic.mac1609_4 SNIRLostPackets 0
scalar RSUExampleScenario2.node[270].nic.mac1609_4 RXTXLostPackets 0
scalar RSUExampleScenario2.node[270].nic.mac1609_4 TotalLostPackets 0
scalar RSUExampleScenario2.node[270].nic.mac1609_4 DroppedPacketsInMac 0
scalar RSUExampleScenario2.node[270].nic.mac1609_4 TooLittleTime 0
scalar RSUExampleScenario2.node[270].nic.mac1609_4 TimesIntoBackoff 3
scalar RSUExampleScenario2.node[270].nic.mac1609_4 SlotsBackoff 8
scalar RSUExampleScenario2.node[270].nic.mac1609_4 NumInternalContention 0
scalar RSUExampleScenario2.node[270].nic.mac1609_4 totalBusyTime 0.002707
scalar RSUExampleScenario2.node[270].veinsmobility startTime 325
scalar RSUExampleScenario2.node[270].veinsmobility totalTime 54
scalar RSUExampleScenario2.node[270].veinsmobility stopTime 379.10063789622
scalar RSUExampleScenario2.node[270].veinsmobility minSpeed 3.1662917880611
scalar RSUExampleScenario2.node[270].veinsmobility maxSpeed 19.999089802615
scalar RSUExampleScenario2.node[270].veinsmobility totalDistance 967.23317684485
scalar RSUExampleScenario2.node[270].veinsmobility totalCO2Emission 189.39946305718
scalar RSUExampleScenario2.node[272].appl generatedWSMs 0
scalar RSUExampleScenario2.node[272].appl receivedWSMs 0
scalar RSUExampleScenario2.node[272].appl generatedBSMs 3
scalar RSUExampleScenario2.node[272].appl receivedBSMs 25
[...]
scalar RSUExampleScenario2.node[247].nic.mac1609_4 totalBusyTime 0.004059
scalar RSUExampleScenario2.node[247].veinsmobility startTime 301
scalar RSUExampleScenario2.node[247].veinsmobility totalTime 78
scalar RSUExampleScenario2.node[247].veinsmobility stopTime 379.10063789622
scalar RSUExampleScenario2.node[247].veinsmobility minSpeed 19.903330924525
scalar RSUExampleScenario2.node[247].veinsmobility maxSpeed 19.998967606178
scalar RSUExampleScenario2.node[247].veinsmobility totalDistance 1556.3235967822
scalar RSUExampleScenario2.node[247].veinsmobility totalCO2Emission 215.80377316152
scalar RSUExampleScenario2.node[248].appl generatedWSMs 0
scalar RSUExampleScenario2.node[248].appl receivedWSMs 0
scalar RSUExampleScenario2.node[248].appl generatedBSMs 3
scalar RSUExampleScenario2.node[248].appl receivedBSMs 36
scalar RSUExampleScenario2.node[248].appl generatedWSAs 0
scalar RSUExampleScenario2.node[248].appl receivedWSAs 0
scalar RSUExampleScenario2.node[248].nic.phy80211p busyTime 4.7938148789195e-05
scalar RSUExampleScenario2.node[248].nic.mac1609_4 ReceivedUnicastPackets 0
scalar RSUExampleScenario2.node[248].nic.mac1609_4 ReceivedBroadcasts 36
scalar RSUExampleScenario2.node[248].nic.mac1609_4 SentPackets 3
scalar RSUExampleScenario2.node[248].nic.mac1609_4 SentAcknowledgements 0
scalar RSUExampleScenario2.node[248].nic.mac1609_4 SNIRLostPackets 0
scalar RSUExampleScenario2.node[248].nic.mac1609_4 RXTXLostPackets 0
scalar RSUExampleScenario2.node[248].nic.mac1609_4 TotalLostPackets 0
scalar RSUExampleScenario2.node[248].nic.mac1609_4 DroppedPacketsInMac 0
scalar RSUExampleScenario2.node[248].nic.mac1609_4 TooLittleTime 0
scalar RSUExampleScenario2.node[248].nic.mac1609_4 TimesIntoBackoff 3
scalar RSUExampleScenario2.node[248].nic.mac1609_4 SlotsBackoff 5
scalar RSUExampleScenario2.node[248].nic.mac1609_4 NumInternalContention 0
scalar RSUExampleScenario2.node[248].nic.mac1609_4 totalBusyTime 0.004059
scalar RSUExampleScenario2.node[248].veinsmobility startTime 301
scalar RSUExampleScenario2.node[248].veinsmobility totalTime 78
scalar RSUExampleScenario2.node[248].veinsmobility stopTime 379.10063789622
scalar RSUExampleScenario2.node[248].veinsmobility minSpeed 19.891047812635
scalar RSUExampleScenario2.node[248].veinsmobility maxSpeed 19.99926239471
scalar RSUExampleScenario2.node[248].veinsmobility totalDistance 1556.0213695472
scalar RSUExampleScenario2.node[248].veinsmobility totalCO2Emission 216.60094203342
scalar RSUExampleScenario2.node[249].appl generatedWSMs 0
scalar RSUExampleScenario2.node[249].appl receivedWSMs 0
scalar RSUExampleScenario2.node[249].appl generatedBSMs 3
scalar RSUExampleScenario2.node[249].appl receivedBSMs 39
scalar RSUExampleScenario2.node[249].appl generatedWSAs 0
scalar RSUExampleScenario2.node[249].appl receivedWSAs 0
scalar RSUExampleScenario2.node[249].nic.phy80211p busyTime 5.1932994521628e-05
scalar RSUExampleScenario2.node[249].nic.mac1609_4 ReceivedUnicastPackets 0
scalar RSUExampleScenario2.node[249].nic.mac1609_4 ReceivedBroadcasts 39
scalar RSUExampleScenario2.node[249].nic.mac1609_4 SentPackets 3
scalar RSUExampleScenario2.node[249].nic.mac1609_4 SentAcknowledgements 0
scalar RSUExampleScenario2.node[249].nic.mac1609_4 SNIRLostPackets 0
scalar RSUExampleScenario2.node[249].nic.mac1609_4 RXTXLostPackets 0
scalar RSUExampleScenario2.node[249].nic.mac1609_4 TotalLostPackets 0
scalar RSUExampleScenario2.node[249].nic.mac1609_4 DroppedPacketsInMac 0
scalar RSUExampleScenario2.node[249].nic.mac1609_4 TooLittleTime 0
scalar RSUExampleScenario2.node[249].nic.mac1609_4 TimesIntoBackoff 3
scalar RSUExampleScenario2.node[249].nic.mac1609_4 SlotsBackoff 3
scalar RSUExampleScenario2.node[249].nic.mac1609_4 NumInternalContention 0
scalar RSUExampleScenario2.node[249].nic.mac1609_4 totalBusyTime 0.004371
scalar RSUExampleScenario2.node[249].veinsmobility startTime 301
scalar RSUExampleScenario2.node[249].veinsmobility totalTime 78
scalar RSUExampleScenario2.node[249].veinsmobility stopTime 379.10063789622
scalar RSUExampleScenario2.node[249].veinsmobility minSpeed 19.903476089588
scalar RSUExampleScenario2.node[249].veinsmobility maxSpeed 19.998778078286
scalar RSUExampleScenario2.node[249].veinsmobility totalDistance 1555.838196681
scalar RSUExampleScenario2.node[249].veinsmobility totalCO2Emission 215.74554945774
scalar RSUExampleScenario2.node[250].appl generatedWSMs 0
scalar RSUExampleScenario2.node[250].appl receivedWSMs 0
scalar RSUExampleScenario2.node[250].appl generatedBSMs 3
scalar RSUExampleScenario2.node[250].appl receivedBSMs 39
scalar RSUExampleScenario2.node[250].appl generatedWSAs 0
scalar RSUExampleScenario2.node[250].appl receivedWSAs 0
scalar RSUExampleScenario2.node[250].nic.phy80211p busyTime 5.1932994521628e-05
scalar RSUExampleScenario2.node[250].nic.mac1609_4 ReceivedUnicastPackets 0
scalar RSUExampleScenario2.node[250].nic.mac1609_4 ReceivedBroadcasts 39
scalar RSUExampleScenario2.node[250].nic.mac1609_4 SentPackets 3
scalar RSUExampleScenario2.node[250].nic.mac1609_4 SentAcknowledgements 0
scalar RSUExampleScenario2.node[250].nic.mac1609_4 SNIRLostPackets 0
scalar RSUExampleScenario2.node[250].nic.mac1609_4 RXTXLostPackets 0
scalar RSUExampleScenario2.node[250].nic.mac1609_4 TotalLostPackets 0
scalar RSUExampleScenario2.node[250].nic.mac1609_4 DroppedPacketsInMac 0
scalar RSUExampleScenario2.node[250].nic.mac1609_4 TooLittleTime 0
scalar RSUExampleScenario2.node[250].nic.mac1609_4 TimesIntoBackoff 3
scalar RSUExampleScenario2.node[250].nic.mac1609_4 SlotsBackoff 4
scalar RSUExampleScenario2.node[250].nic.mac1609_4 NumInternalContention 0
scalar RSUExampleScenario2.node[250].nic.mac1609_4 totalBusyTime 0.004371
scalar RSUExampleScenario2.node[250].veinsmobility startTime 301
scalar RSUExampleScenario2.node[250].veinsmobility totalTime 78
scalar RSUExampleScenario2.node[250].veinsmobility stopTime 379.10063789622
scalar RSUExampleScenario2.node[250].veinsmobility minSpeed 0
scalar RSUExampleScenario2.node[250].veinsmobility maxSpeed 19.999231148046
scalar RSUExampleScenario2.node[250].veinsmobility totalDistance 1461.5406628419
scalar RSUExampleScenario2.node[250].veinsmobility totalCO2Emission 206.22388994182
scalar RSUExampleScenario2.node[251].appl generatedWSMs 0
scalar RSUExampleScenario2.node[251].appl receivedWSMs 0
scalar RSUExampleScenario2.node[251].appl generatedBSMs 3
scalar RSUExampleScenario2.node[251].appl receivedBSMs 39
scalar RSUExampleScenario2.node[251].appl generatedWSAs 0
scalar RSUExampleScenario2.node[251].appl receivedWSAs 0
scalar RSUExampleScenario2.node[251].nic.phy80211p busyTime 5.1932994521628e-05
scalar RSUExampleScenario2.node[251].nic.mac1609_4 ReceivedUnicastPackets 0
scalar RSUExampleScenario2.node[251].nic.mac1609_4 ReceivedBroadcasts 39
scalar RSUExampleScenario2.node[251].nic.mac1609_4 SentPackets 3
scalar RSUExampleScenario2.node[251].nic.mac1609_4 SentAcknowledgements 0
scalar RSUExampleScenario2.node[251].nic.mac1609_4 SNIRLostPackets 0
scalar RSUExampleScenario2.node[251].nic.mac1609_4 RXTXLostPackets 0
scalar RSUExampleScenario2.node[251].nic.mac1609_4 TotalLostPackets 0
scalar RSUExampleScenario2.node[251].nic.mac1609_4 DroppedPacketsInMac 0
scalar RSUExampleScenario2.node[251].nic.mac1609_4 TooLittleTime 0
scalar RSUExampleScenario2.node[251].nic.mac1609_4 TimesIntoBackoff 3
scalar RSUExampleScenario2.node[251].nic.mac1609_4 SlotsBackoff 5
scalar RSUExampleScenario2.node[251].nic.mac1609_4 NumInternalContention 0
scalar RSUExampleScenario2.node[251].nic.mac1609_4 totalBusyTime 0.004371
scalar RSUExampleScenario2.node[251].veinsmobility startTime 301
scalar RSUExampleScenario2.node[251].veinsmobility totalTime 78
scalar RSUExampleScenario2.node[251].veinsmobility stopTime 379.10063789622
scalar RSUExampleScenario2.node[251].veinsmobility minSpeed 13.119590037408
scalar RSUExampleScenario2.node[251].veinsmobility maxSpeed 19.55017118032
scalar RSUExampleScenario2.node[251].veinsmobility totalDistance 1508.1682095187
scalar RSUExampleScenario2.node[251].veinsmobility totalCO2Emission 204.85408000364
scalar RSUExampleScenario2.manager roiArea 0
scalar RSUExampleScenario2.rsu[0].appl generatedWSMs 0
scalar RSUExampleScenario2.rsu[0].appl receivedWSMs 0
scalar RSUExampleScenario2.rsu[0].appl generatedBSMs 3
scalar RSUExampleScenario2.rsu[0].appl receivedBSMs 36
scalar RSUExampleScenario2.rsu[0].appl generatedWSAs 0
scalar RSUExampleScenario2.rsu[0].appl receivedWSAs 0
scalar RSUExampleScenario2.rsu[0].nic.phy80211p busyTime 1.042467251422e-05
scalar RSUExampleScenario2.rsu[0].nic.mac1609_4 ReceivedUnicastPackets 0
scalar RSUExampleScenario2.rsu[0].nic.mac1609_4 ReceivedBroadcasts 36
scalar RSUExampleScenario2.rsu[0].nic.mac1609_4 SentPackets 3
scalar RSUExampleScenario2.rsu[0].nic.mac1609_4 SentAcknowledgements 0
scalar RSUExampleScenario2.rsu[0].nic.mac1609_4 SNIRLostPackets 2
scalar RSUExampleScenario2.rsu[0].nic.mac1609_4 RXTXLostPackets 0
scalar RSUExampleScenario2.rsu[0].nic.mac1609_4 TotalLostPackets 2
scalar RSUExampleScenario2.rsu[0].nic.mac1609_4 DroppedPacketsInMac 0
scalar RSUExampleScenario2.rsu[0].nic.mac1609_4 TooLittleTime 0
scalar RSUExampleScenario2.rsu[0].nic.mac1609_4 TimesIntoBackoff 3
scalar RSUExampleScenario2.rsu[0].nic.mac1609_4 SlotsBackoff 9
scalar RSUExampleScenario2.rsu[0].nic.mac1609_4 NumInternalContention 0
scalar RSUExampleScenario2.rsu[0].nic.mac1609_4 totalBusyTime 0.004267

run WithBeaconing-0-20200226-04:59:52-10073
attr configname WithBeaconing
attr datetime 20200226-04:59:52
attr experiment WithBeaconing
attr inifile omnetpp.ini
attr iterationvars ""
attr iterationvarsf ""
attr measurement ""
attr network RSUExampleScenario2
attr processid 10073
attr repetition 0
attr replication #0
attr resultdir results
attr runnumber 0
attr seedset 0
param *.rsu[*].appl.sendBeacons true
param *.node[*].appl.sendBeacons true
param *.playgroundSizeX 11000m
param *.playgroundSizeY 2000m
param *.playgroundSizeZ 50m
param *.annotations.draw true
param *.manager.updateInterval 1s
param *.manager.host "\"localhost\""
param *.manager.port 9999
param *.manager.autoShutdown true
param *.manager.launchConfig "xmldoc(\"myVeinsAPP.launchd.xml\")"
param *.rsu[0].mobility.x 2000
param *.rsu[0].mobility.y 50
param *.rsu[0].mobility.z 3
param *.rsu[*].applType "\"TraCIDemoRSU11p\""
param *.rsu[*].appl.headerLength "80 bit"
param *.rsu[*].appl.sendBeacons false
param *.rsu[*].appl.dataOnSch false
param *.rsu[*].appl.beaconInterval 1s
param *.rsu[*].appl.beaconUserPriority 7
param *.rsu[*].appl.dataUserPriority 5
param *.rsu[*].nic.phy80211p.antennaOffsetZ "0 m"
param *.connectionManager.sendDirect true
param *.connectionManager.maxInterfDist 300m
param *.connectionManager.drawMaxIntfDist false
param *.**.nic.mac1609_4.useServiceChannel false
param *.**.nic.mac1609_4.txPower 20mW
param *.**.nic.mac1609_4.bitrate 6Mbps
param *.**.nic.phy80211p.minPowerLevel -110dBm
param *.**.nic.phy80211p.useNoiseFloor true
param *.**.nic.phy80211p.noiseFloor -98dBm
param *.**.nic.phy80211p.decider "xmldoc(\"config2.xml\")"
param *.**.nic.phy80211p.analogueModels "xmldoc(\"config2.xml\")"
param *.**.nic.phy80211p.usePropagationDelay true
param *.**.nic.phy80211p.antenna "xmldoc(\"antenna.xml\", \"/root/Antenna[@id='monopole']\")"
param *.node[*].nic.phy80211p.antennaOffsetY "0 m"
param *.node[*].nic.phy80211p.antennaOffsetZ "1.895 m"
param *.node[*].applType "\"MyVeinsApp\""
param *.node[*].appl.headerLength "80 bit"
param *.node[*].appl.sendBeacons false
param *.node[*].appl.dataOnSch false
param *.node[*].appl.beaconInterval 1s
param *.node[*].veinsmobility.x 0
param *.node[*].veinsmobility.y 0
param *.node[*].veinsmobility.z 0
param *.node[*].veinsmobility.setHostSpeed false
param *.node[*0].veinsmobility.accidentCount 5
param *.node[*0].veinsmobility.accidentStart 73s
param *.node[*0].veinsmobility.accidentDuration 20s

scalar RSUExampleScenario2.node[0].appl generatedWSMs 0
scalar RSUExampleScenario2.node[0].appl receivedWSMs 0
scalar RSUExampleScenario2.node[0].appl generatedBSMs 2
scalar RSUExampleScenario2.node[0].appl receivedBSMs 0
scalar RSUExampleScenario2.node[0].appl generatedWSAs 0
scalar RSUExampleScenario2.node[0].appl receivedWSAs 0
scalar RSUExampleScenario2.node[0].nic.phy80211p busyTime 0
scalar RSUExampleScenario2.node[0].nic.mac1609_4 ReceivedUnicastPackets 0
scalar RSUExampleScenario2.node[0].nic.mac1609_4 ReceivedBroadcasts 0
scalar RSUExampleScenario2.node[0].nic.mac1609_4 SentPackets 2
scalar RSUExampleScenario2.node[0].nic.mac1609_4 SentAcknowledgements 0
scalar RSUExampleScenario2.node[0].nic.mac1609_4 SNIRLostPackets 0
scalar RSUExampleScenario2.node[0].nic.mac1609_4 RXTXLostPackets 0
scalar RSUExampleScenario2.node[0].nic.mac1609_4 TotalLostPackets 0
scalar RSUExampleScenario2.node[0].nic.mac1609_4 DroppedPacketsInMac 0
scalar RSUExampleScenario2.node[0].nic.mac1609_4 TooLittleTime 0
scalar RSUExampleScenario2.node[0].nic.mac1609_4 TimesIntoBackoff 2
scalar RSUExampleScenario2.node[0].nic.mac1609_4 SlotsBackoff 2
scalar RSUExampleScenario2.node[0].nic.mac1609_4 NumInternalContention 0
scalar RSUExampleScenario2.node[0].nic.mac1609_4 totalBusyTime 0.00021
scalar RSUExampleScenario2.node[0].veinsmobility startTime 1
scalar RSUExampleScenario2.node[0].veinsmobility totalTime 2
scalar RSUExampleScenario2.node[0].veinsmobility stopTime 3.3374020381
scalar RSUExampleScenario2.node[0].veinsmobility minSpeed 3.1352586737115
scalar RSUExampleScenario2.node[0].veinsmobility maxSpeed 4.6830733870369
scalar RSUExampleScenario2.node[0].veinsmobility totalDistance 6.4416920201067
scalar RSUExampleScenario2.node[0].veinsmobility totalCO2Emission 3.092294965523
scalar RSUExampleScenario2.node[2].appl generatedWSMs 0
scalar RSUExampleScenario2.node[2].appl receivedWSMs 0
scalar RSUExampleScenario2.node[2].appl generatedBSMs 0
scalar RSUExampleScenario2.node[2].appl receivedBSMs 0
scalar RSUExampleScenario2.node[2].appl generatedWSAs 0
scalar RSUExampleScenario2.node[2].appl receivedWSAs 0
scalar RSUExampleScenario2.node[2].nic.phy80211p busyTime 0
scalar RSUExampleScenario2.node[2].nic.mac1609_4 ReceivedUnicastPackets 0
scalar RSUExampleScenario2.node[2].nic.mac1609_4 ReceivedBroadcasts 0
scalar RSUExampleScenario2.node[2].nic.mac1609_4 SentPackets 0
scalar RSUExampleScenario2.node[2].nic.mac1609_4 SentAcknowledgements 0
scalar RSUExampleScenario2.node[2].nic.mac1609_4 SNIRLostPackets 0
scalar RSUExampleScenario2.node[2].nic.mac1609_4 RXTXLostPackets 0
scalar RSUExampleScenario2.node[2].nic.mac1609_4 TotalLostPackets 0
scalar RSUExampleScenario2.node[2].nic.mac1609_4 DroppedPacketsInMac 0
scalar RSUExampleScenario2.node[2].nic.mac1609_4 TooLittleTime 0
scalar RSUExampleScenario2.node[2].nic.mac1609_4 TimesIntoBackoff 0
scalar RSUExampleScenario2.node[2].nic.mac1609_4 SlotsBackoff 0
scalar RSUExampleScenario2.node[2].nic.mac1609_4 NumInternalContention 0
scalar RSUExampleScenario2.node[2].nic.mac1609_4 totalBusyTime 0
scalar RSUExampleScenario2.node[2].veinsmobility startTime 3
scalar RSUExampleScenario2.node[2].veinsmobility totalTime 0
scalar RSUExampleScenario2.node[2].veinsmobility stopTime 3.3374020381
scalar RSUExampleScenario2.node[2].veinsmobility totalDistance 0
scalar RSUExampleScenario2.node[2].veinsmobility totalCO2Emission 0
scalar RSUExampleScenario2.node[1].appl generatedWSMs 0
scalar RSUExampleScenario2.node[1].appl receivedWSMs 0
scalar RSUExampleScenario2.node[1].appl generatedBSMs 3
scalar RSUExampleScenario2.node[1].appl receivedBSMs 0
scalar RSUExampleScenario2.node[1].appl generatedWSAs 0
scalar RSUExampleScenario2.node[1].appl receivedWSAs 0
scalar RSUExampleScenario2.node[1].nic.phy80211p busyTime 0
scalar RSUExampleScenario2.node[1].nic.mac1609_4 ReceivedUnicastPackets 0
scalar RSUExampleScenario2.node[1].nic.mac1609_4 ReceivedBroadcasts 0
scalar RSUExampleScenario2.node[1].nic.mac1609_4 SentPackets 3
scalar RSUExampleScenario2.node[1].nic.mac1609_4 SentAcknowledgements 0
scalar RSUExampleScenario2.node[1].nic.mac1609_4 SNIRLostPackets 0
scalar RSUExampleScenario2.node[1].nic.mac1609_4 RXTXLostPackets 0
scalar RSUExampleScenario2.node[1].nic.mac1609_4 TotalLostPackets 0
scalar RSUExampleScenario2.node[1].nic.mac1609_4 DroppedPacketsInMac 0
scalar RSUExampleScenario2.node[1].nic.mac1609_4 TooLittleTime 0
scalar RSUExampleScenario2.node[1].nic.mac1609_4 TimesIntoBackoff 3
scalar RSUExampleScenario2.node[1].nic.mac1609_4 SlotsBackoff 3
scalar RSUExampleScenario2.node[1].nic.mac1609_4 NumInternalContention 0
scalar RSUExampleScenario2.node[1].nic.mac1609_4 totalBusyTime 0.000315
scalar RSUExampleScenario2.node[1].veinsmobility startTime 1
scalar RSUExampleScenario2.node[1].veinsmobility totalTime 2
scalar RSUExampleScenario2.node[1].veinsmobility stopTime 3.3374020381
scalar RSUExampleScenario2.node[1].veinsmobility minSpeed 3.2018923899653
scalar RSUExampleScenario2.node[1].veinsmobility maxSpeed 4.7811851204401
scalar RSUExampleScenario2.node[1].veinsmobility totalDistance 6.6249664903335
scalar RSUExampleScenario2.node[1].veinsmobility totalCO2Emission 3.1705057761101
scalar RSUExampleScenario2.node[3].appl generatedWSMs 0
scalar RSUExampleScenario2.node[3].appl receivedWSMs 0
scalar RSUExampleScenario2.node[3].appl generatedBSMs 1
scalar RSUExampleScenario2.node[3].appl receivedBSMs 1
scalar RSUExampleScenario2.node[3].appl generatedWSAs 0
scalar RSUExampleScenario2.node[3].appl receivedWSAs 0
scalar RSUExampleScenario2.node[3].nic.phy80211p busyTime 0.00030823761642239
scalar RSUExampleScenario2.node[3].nic.mac1609_4 ReceivedUnicastPackets 0
scalar RSUExampleScenario2.node[3].nic.mac1609_4 ReceivedBroadcasts 1
scalar RSUExampleScenario2.node[3].nic.mac1609_4 SentPackets 1
scalar RSUExampleScenario2.node[3].nic.mac1609_4 SentAcknowledgements 0
scalar RSUExampleScenario2.node[3].nic.mac1609_4 SNIRLostPackets 0
scalar RSUExampleScenario2.node[3].nic.mac1609_4 RXTXLostPackets 0
scalar RSUExampleScenario2.node[3].nic.mac1609_4 TotalLostPackets 0
scalar RSUExampleScenario2.node[3].nic.mac1609_4 DroppedPacketsInMac 0
scalar RSUExampleScenario2.node[3].nic.mac1609_4 TooLittleTime 0
scalar RSUExampleScenario2.node[3].nic.mac1609_4 TimesIntoBackoff 0
scalar RSUExampleScenario2.node[3].nic.mac1609_4 SlotsBackoff 0
scalar RSUExampleScenario2.node[3].nic.mac1609_4 NumInternalContention 0
scalar RSUExampleScenario2.node[3].nic.mac1609_4 totalBusyTime 0.000104
scalar RSUExampleScenario2.node[3].veinsmobility startTime 3
scalar RSUExampleScenario2.node[3].veinsmobility totalTime 0
scalar RSUExampleScenario2.node[3].veinsmobility stopTime 3.3374020381
scalar RSUExampleScenario2.node[3].veinsmobility totalDistance 0
scalar RSUExampleScenario2.node[3].veinsmobility totalCO2Emission 0
scalar RSUExampleScenario2.manager roiArea 0
scalar RSUExampleScenario2.rsu[0].appl generatedWSMs 0
scalar RSUExampleScenario2.rsu[0].appl receivedWSMs 0
scalar RSUExampleScenario2.rsu[0].appl generatedBSMs 3
scalar RSUExampleScenario2.rsu[0].appl receivedBSMs 0
scalar RSUExampleScenario2.rsu[0].appl generatedWSAs 0
scalar RSUExampleScenario2.rsu[0].appl receivedWSAs 0
scalar RSUExampleScenario2.rsu[0].nic.phy80211p busyTime 0
scalar RSUExampleScenario2.rsu[0].nic.mac1609_4 ReceivedUnicastPackets 0
scalar RSUExampleScenario2.rsu[0].nic.mac1609_4 ReceivedBroadcasts 0
scalar RSUExampleScenario2.rsu[0].nic.mac1609_4 SentPackets 3
scalar RSUExampleScenario2.rsu[0].nic.mac1609_4 SentAcknowledgements 0
scalar RSUExampleScenario2.rsu[0].nic.mac1609_4 SNIRLostPackets 0
scalar RSUExampleScenario2.rsu[0].nic.mac1609_4 RXTXLostPackets 0
scalar RSUExampleScenario2.rsu[0].nic.mac1609_4 TotalLostPackets 0
scalar RSUExampleScenario2.rsu[0].nic.mac1609_4 DroppedPacketsInMac 0
scalar RSUExampleScenario2.rsu[0].nic.mac1609_4 TooLittleTime 0
scalar RSUExampleScenario2.rsu[0].nic.mac1609_4 TimesIntoBackoff 3
scalar RSUExampleScenario2.rsu[0].nic.mac1609_4 SlotsBackoff 4
scalar RSUExampleScenario2.rsu[0].nic.mac1609_4 NumInternalContention 0
scalar RSUExampleScenario2.rsu[0].nic.mac1609_4 totalBusyTime 0.000315

